Program Version,EnergyPlus, Version 9.1.0-fafb9d5652, YMD=2020.03.24 18:14,
   ************* Beginning Zone Sizing Calculations
   ** Warning ** ProcessScheduleInput: Schedule:Day:Interval="39 SPACE(S) OCC SCH DEFAULT", Blank Schedule Type Limits Name input -- will not be validated.
   ** Warning ** ProcessScheduleInput: Schedule:Day:Interval="39 SPACE(S) OCC SCH SATURDAY", Blank Schedule Type Limits Name input -- will not be validated.
   ** Warning ** ProcessScheduleInput: Schedule:Day:Interval="39 SPACE(S) OCC SCH SUMMER DESIGN DAY", Blank Schedule Type Limits Name input -- will not be validated.
   ** Warning ** ProcessScheduleInput: Schedule:Day:Interval="39 SPACE(S) OCC SCH SUNDAY", Blank Schedule Type Limits Name input -- will not be validated.
   ** Warning ** ProcessScheduleInput: Schedule:Day:Interval="39 SPACE(S) OCC SCH WINTER DESIGN DAY", Blank Schedule Type Limits Name input -- will not be validated.
   ** Warning ** ProcessScheduleInput: Schedule:Day:Interval="ECONOMIZER MAX OA FRACTION 70 PCT DEFAULT", Blank Schedule Type Limits Name input -- will not be validated.
   ** Warning ** ProcessScheduleInput: Schedule:Day:Interval="SCHEDULE DAY 1", Blank Schedule Type Limits Name input -- will not be validated.
   ** Warning ** ProcessScheduleInput: Schedule:Day:Interval="SCHEDULE DAY 2", Blank Schedule Type Limits Name input -- will not be validated.
   ** Warning ** ProcessScheduleInput: Schedule:Day:Interval="SCHEDULE DAY 3", Blank Schedule Type Limits Name input -- will not be validated.
   ** Warning ** ProcessScheduleInput: Schedule:Day:Interval="SCHEDULE DAY 4", Blank Schedule Type Limits Name input -- will not be validated.
   ** Warning ** ProcessScheduleInput: Schedule:Day:Interval="SCHEDULE DAY 5", Blank Schedule Type Limits Name input -- will not be validated.
   ** Warning ** ProcessScheduleInput: Schedule:Day:Interval="SCHEDULE DAY 6", Blank Schedule Type Limits Name input -- will not be validated.
   ** Warning ** ProcessScheduleInput: Schedule:Day:Interval="SCHEDULE DAY 7", Blank Schedule Type Limits Name input -- will not be validated.
   ** Warning ** ProcessScheduleInput: Schedule:Day:Interval="SCHEDULE DAY 8", Blank Schedule Type Limits Name input -- will not be validated.
   ** Warning ** ProcessScheduleInput: Schedule:Year="ECONOMIZER MAX OA FRACTION 70 PCT", Blank Schedule Type Limits Name input -- will not be validated.
   ** Warning ** ProcessScheduleInput: Schedule:Year="ELEVATOR SCHEDULE", Blank Schedule Type Limits Name input -- will not be validated.
   ** Warning ** ProcessScheduleInput: Schedule:Constant="ALWAYS OFF DISCRETE", Blank Schedule Type Limits Name input -- will not be validated.
   ** Warning ** ProcessScheduleInput: Schedule:Constant="ALWAYS ON CONTINUOUS", Blank Schedule Type Limits Name input -- will not be validated.
   ** Warning ** CheckUsedConstructions: There are 11 nominally unused constructions in input.
   **   ~~~   ** For explicit details on each unused construction, use Output:Diagnostics,DisplayExtraWarnings;
   ** Warning ** DetermineShadowingCombinations: There are 2 surfaces which are receiving surfaces and are non-convex.
   **   ~~~   ** ...Shadowing values may be inaccurate. Check .shd report file for more surface shading details
   **   ~~~   ** ...Add Output:Diagnostics,DisplayExtraWarnings; to see individual warnings for each surface.
   ** Warning ** GetDaylightingControls: Fraction of Zone controlled by the Daylighting reference points is < 1.0.
   **   ~~~   ** ..discovered in "Daylighting:Controls" for Zone="BUILDING STORY 1 THERMALZONE", only 0.20 of the zone is controlled.
   ** Warning ** GetDaylightingControls: Fraction of Zone controlled by the Daylighting reference points is < 1.0.
   **   ~~~   ** ..discovered in "Daylighting:Controls" for Zone="BUILDING STORY 2 THERMALZONE", only 0.20 of the zone is controlled.
   ** Warning ** GetDaylightingControls: Fraction of Zone controlled by the Daylighting reference points is < 1.0.
   **   ~~~   ** ..discovered in "Daylighting:Controls" for Zone="BUILDING STORY 3 THERMALZONE", only 8.40E-002 of the zone is controlled.
   ** Warning ** GetDaylightingControls: Fraction of Zone controlled by the Daylighting reference points is < 1.0.
   **   ~~~   ** ..discovered in "Daylighting:Controls" for Zone="BUILDING STORY 4 THERMALZONE", only 8.40E-002 of the zone is controlled.
   ************* Beginning System Sizing Calculations
   ** Warning ** Since Zone Minimum Air Flow Input Method = CONSTANT, input for Fixed Minimum Air Flow Rate will be ignored.
   **   ~~~   ** Occurs in AirTerminal:SingleDuct:VAV:Reheat = BUILDING STORY 1 THERMALZONE VAV TERMINAL
   ** Warning ** Since Zone Minimum Air Flow Input Method = CONSTANT, input for Fixed Minimum Air Flow Rate will be ignored.
   **   ~~~   ** Occurs in AirTerminal:SingleDuct:VAV:Reheat = BUILDING STORY 2 THERMALZONE VAV TERMINAL
   ** Warning ** Since Zone Minimum Air Flow Input Method = CONSTANT, input for Fixed Minimum Air Flow Rate will be ignored.
   **   ~~~   ** Occurs in AirTerminal:SingleDuct:VAV:Reheat = BUILDING STORY 3 THERMALZONE VAV TERMINAL
   ** Warning ** Since Zone Minimum Air Flow Input Method = CONSTANT, input for Fixed Minimum Air Flow Rate will be ignored.
   **   ~~~   ** Occurs in AirTerminal:SingleDuct:VAV:Reheat = BUILDING STORY 4 THERMALZONE VAV TERMINAL
   ************* Beginning Plant Sizing Calculations
   ** Warning ** Controller:MechanicalVentilation="1 ZONE VAV VENT CONTROLLER", Zone OA/person rate
   **   ~~~   ** For Zone="BUILDING STORY 1 THERMALZONE".
   **   ~~~   ** Zone outside air per person rate not set in Design Specification Outdoor Air Object="BLENDED OA 3".
   ** Warning ** Controller:MechanicalVentilation="1 ZONE VAV 1 VENT CONTROLLER", Zone OA/person rate
   **   ~~~   ** For Zone="BUILDING STORY 2 THERMALZONE".
   **   ~~~   ** Zone outside air per person rate not set in Design Specification Outdoor Air Object="BLENDED OA 2".
   ** Warning ** In calculating the design coil UA for Coil:Cooling:Water 1 ZONE VAV CLG COIL
   **   ~~~   ** the coil bypass factor is unrealistically large;
   **   ~~~   ** The initial design conditions are: Tair,in = 27.6031
   **   ~~~   **                                    Wair,in = 1.239963E-002
   **   ~~~   **                                    Twater,in = 6.6667
   **   ~~~   **                                    Tair,out = 10.9202
   **   ~~~   **                                    Wair,out = 8.500000E-003
   ** Warning ** In calculating the design coil UA for Coil:Cooling:Water 1 ZONE VAV 1 CLG COIL
   **   ~~~   ** the coil bypass factor is unrealistically large;
   **   ~~~   ** The initial design conditions are: Tair,in = 27.2550
   **   ~~~   **                                    Wair,in = 1.176109E-002
   **   ~~~   **                                    Twater,in = 6.6667
   **   ~~~   **                                    Tair,out = 10.9181
   **   ~~~   **                                    Wair,out = 8.500000E-003
   ** Warning ** In calculating the design coil UA for Coil:Cooling:Water 1 ZONE VAV 2 CLG COIL
   **   ~~~   ** the coil bypass factor is unrealistically large;
   **   ~~~   ** The initial design conditions are: Tair,in = 23.9984
   **   ~~~   **                                    Wair,in = 9.539454E-003
   **   ~~~   **                                    Twater,in = 6.6667
   **   ~~~   **                                    Tair,out = 10.9106
   **   ~~~   **                                    Wair,out = 8.500000E-003
   ** Warning ** In calculating the design coil UA for Coil:Cooling:Water 1 ZONE VAV 3 CLG COIL
   **   ~~~   ** the coil bypass factor is unrealistically large;
   **   ~~~   ** The initial design conditions are: Tair,in = 24.9151
   **   ~~~   **                                    Wair,in = 9.961671E-003
   **   ~~~   **                                    Twater,in = 6.6667
   **   ~~~   **                                    Tair,out = 10.9120
   **   ~~~   **                                    Wair,out = 8.500000E-003
   ** Warning ** GetElectricEIRChillerInput: Chiller:Electric:EIR="90.1-2013 WATERCOOLED  ROTARY SCREW CHILLER 0 2643TONS 0.6KW/TON"
   **   ~~~   ** Energy input ratio as a function of temperature curve output is not equal to 1.0 (+ or - 10%) at reference conditions.
   **   ~~~   ** Curve output at reference conditions = 1.205
   ** Warning ** Check input. Pump nominal power or motor efficiency is set to 0, for pump=BOOSTER WATER LOOP PUMP
   ** Warning ** Missing temperature setpoint for LeavingSetpointModulated mode Boiler named BOILER 21269KBTU/HR 0.8 THERMAL EFF
   **   ~~~   **   A temperature setpoint is needed at the outlet node of a boiler in variable flow mode
   **   ~~~   **   use a Setpoint Manager to establish a setpoint at the boiler outlet node 
   **   ~~~   **   or use an EMS actuator to establish a setpoint at the boiler outlet node 
   **   ~~~   **   The overall loop setpoint will be assumed for Boiler. The simulation continues ... 
   ** Warning ** Output:Meter: invalid Key Name="HEATING:ADDITIONALFUEL" - not found.
   ** Warning ** Output:Meter: invalid Key Name="HEATING:DISTRICTCOOLING" - not found.
   ** Warning ** Output:Meter: invalid Key Name="HEATING:DISTRICTHEATING" - not found.
   ** Warning ** Output:Meter: invalid Key Name="HEATING:WATER" - not found.
   ** Warning ** Output:Meter: invalid Key Name="COOLING:GAS" - not found.
   ** Warning ** Output:Meter: invalid Key Name="COOLING:ADDITIONALFUEL" - not found.
   ** Warning ** Output:Meter: invalid Key Name="COOLING:DISTRICTCOOLING" - not found.
   ** Warning ** Output:Meter: invalid Key Name="COOLING:DISTRICTHEATING" - not found.
   ** Warning ** Output:Meter: invalid Key Name="COOLING:WATER" - not found.
   ** Warning ** Output:Meter: invalid Key Name="INTERIORLIGHTS:GAS" - not found.
   ** Warning ** Output:Meter: invalid Key Name="INTERIORLIGHTS:ADDITIONALFUEL" - not found.
   ** Warning ** Output:Meter: invalid Key Name="INTERIORLIGHTS:DISTRICTCOOLING" - not found.
   ** Warning ** Output:Meter: invalid Key Name="INTERIORLIGHTS:DISTRICTHEATING" - not found.
   ** Warning ** Output:Meter: invalid Key Name="INTERIORLIGHTS:WATER" - not found.
   ** Warning ** Output:Meter: invalid Key Name="EXTERIORLIGHTS:GAS" - not found.
   ** Warning ** Output:Meter: invalid Key Name="EXTERIORLIGHTS:ADDITIONALFUEL" - not found.
   ** Warning ** Output:Meter: invalid Key Name="EXTERIORLIGHTS:DISTRICTCOOLING" - not found.
   ** Warning ** Output:Meter: invalid Key Name="EXTERIORLIGHTS:DISTRICTHEATING" - not found.
   ** Warning ** Output:Meter: invalid Key Name="EXTERIORLIGHTS:WATER" - not found.
   ** Warning ** Output:Meter: invalid Key Name="INTERIOREQUIPMENT:ADDITIONALFUEL" - not found.
   ** Warning ** Output:Meter: invalid Key Name="INTERIOREQUIPMENT:DISTRICTCOOLING" - not found.
   ** Warning ** Output:Meter: invalid Key Name="INTERIOREQUIPMENT:DISTRICTHEATING" - not found.
   ** Warning ** Output:Meter: invalid Key Name="INTERIOREQUIPMENT:WATER" - not found.
   ** Warning ** Output:Meter: invalid Key Name="EXTERIOREQUIPMENT:ELECTRICITY" - not found.
   ** Warning ** Output:Meter: invalid Key Name="EXTERIOREQUIPMENT:GAS" - not found.
   ** Warning ** Output:Meter: invalid Key Name="EXTERIOREQUIPMENT:ADDITIONALFUEL" - not found.
   ** Warning ** Output:Meter: invalid Key Name="EXTERIOREQUIPMENT:DISTRICTCOOLING" - not found.
   ** Warning ** Output:Meter: invalid Key Name="EXTERIOREQUIPMENT:DISTRICTHEATING" - not found.
   ** Warning ** Output:Meter: invalid Key Name="EXTERIOREQUIPMENT:WATER" - not found.
   ** Warning ** Output:Meter: invalid Key Name="FANS:GAS" - not found.
   ** Warning ** Output:Meter: invalid Key Name="FANS:ADDITIONALFUEL" - not found.
   ** Warning ** Output:Meter: invalid Key Name="FANS:DISTRICTCOOLING" - not found.
   ** Warning ** Output:Meter: invalid Key Name="FANS:DISTRICTHEATING" - not found.
   ** Warning ** Output:Meter: invalid Key Name="FANS:WATER" - not found.
   ** Warning ** Output:Meter: invalid Key Name="PUMPS:GAS" - not found.
   ** Warning ** Output:Meter: invalid Key Name="PUMPS:ADDITIONALFUEL" - not found.
   ** Warning ** Output:Meter: invalid Key Name="PUMPS:DISTRICTCOOLING" - not found.
   ** Warning ** Output:Meter: invalid Key Name="PUMPS:DISTRICTHEATING" - not found.
   ** Warning ** Output:Meter: invalid Key Name="PUMPS:WATER" - not found.
   ** Warning ** Output:Meter: invalid Key Name="HEATREJECTION:GAS" - not found.
   ** Warning ** Output:Meter: invalid Key Name="HEATREJECTION:ADDITIONALFUEL" - not found.
   ** Warning ** Output:Meter: invalid Key Name="HEATREJECTION:DISTRICTCOOLING" - not found.
   ** Warning ** Output:Meter: invalid Key Name="HEATREJECTION:DISTRICTHEATING" - not found.
   ** Warning ** Output:Meter: invalid Key Name="HUMIDIFIER:ELECTRICITY" - not found.
   ** Warning ** Output:Meter: invalid Key Name="HUMIDIFIER:GAS" - not found.
   ** Warning ** Output:Meter: invalid Key Name="HUMIDIFIER:ADDITIONALFUEL" - not found.
   ** Warning ** Output:Meter: invalid Key Name="HUMIDIFIER:DISTRICTCOOLING" - not found.
   ** Warning ** Output:Meter: invalid Key Name="HUMIDIFIER:DISTRICTHEATING" - not found.
   ** Warning ** Output:Meter: invalid Key Name="HUMIDIFIER:WATER" - not found.
   ** Warning ** Output:Meter: invalid Key Name="HEATRECOVERY:ELECTRICITY" - not found.
   ** Warning ** Output:Meter: invalid Key Name="HEATRECOVERY:GAS" - not found.
   ** Warning ** Output:Meter: invalid Key Name="HEATRECOVERY:ADDITIONALFUEL" - not found.
   ** Warning ** Output:Meter: invalid Key Name="HEATRECOVERY:DISTRICTCOOLING" - not found.
   ** Warning ** Output:Meter: invalid Key Name="HEATRECOVERY:DISTRICTHEATING" - not found.
   ** Warning ** Output:Meter: invalid Key Name="HEATRECOVERY:WATER" - not found.
   ** Warning ** Output:Meter: invalid Key Name="WATERSYSTEMS:ADDITIONALFUEL" - not found.
   ** Warning ** Output:Meter: invalid Key Name="WATERSYSTEMS:DISTRICTCOOLING" - not found.
   ** Warning ** Output:Meter: invalid Key Name="WATERSYSTEMS:DISTRICTHEATING" - not found.
   ** Warning ** Output:Meter: invalid Key Name="REFRIGERATION:ELECTRICITY" - not found.
   ** Warning ** Output:Meter: invalid Key Name="REFRIGERATION:GAS" - not found.
   ** Warning ** Output:Meter: invalid Key Name="REFRIGERATION:ADDITIONALFUEL" - not found.
   ** Warning ** Output:Meter: invalid Key Name="REFRIGERATION:DISTRICTCOOLING" - not found.
   ** Warning ** Output:Meter: invalid Key Name="REFRIGERATION:DISTRICTHEATING" - not found.
   ** Warning ** Output:Meter: invalid Key Name="REFRIGERATION:WATER" - not found.
   ** Warning ** Output:Meter: invalid Key Name="GENERATORS:ELECTRICITY" - not found.
   ** Warning ** Output:Meter: invalid Key Name="GENERATORS:GAS" - not found.
   ** Warning ** Output:Meter: invalid Key Name="GENERATORS:ADDITIONALFUEL" - not found.
   ** Warning ** Output:Meter: invalid Key Name="GENERATORS:DISTRICTCOOLING" - not found.
   ** Warning ** Output:Meter: invalid Key Name="GENERATORS:DISTRICTHEATING" - not found.
   ** Warning ** Output:Meter: invalid Key Name="GENERATORS:WATER" - not found.
   ** Warning ** Output:Meter: invalid Key Name="ADDITIONALFUEL:FACILITY" - not found.
   ** Warning ** Output:Meter: invalid Key Name="DISTRICTCOOLING:FACILITY" - not found.
   ** Warning ** Output:Meter: invalid Key Name="DISTRICTHEATING:FACILITY" - not found.
   ** Warning ** Output:Meter:MeterFileOnly requested for "Electricity:Facility" (TimeStep), already on "Output:Meter". Will report to both eplusout.eso and eplusout.mtr
   ** Warning ** Output:Meter:MeterFileOnly: invalid Key Name="ELECTRICITYPRODUCED:FACILITY" - not found.
   ** Warning ** Output:Meter:MeterFileOnly requested for "Gas:Facility" (TimeStep), already on "Output:Meter". Will report to both eplusout.eso and eplusout.mtr
   ** Warning ** Output:Meter:MeterFileOnly: invalid Key Name="DISTRICTCOOLING:FACILITY" - not found.
   ** Warning ** Output:Meter:MeterFileOnly: invalid Key Name="DISTRICTHEATING:FACILITY" - not found.
   ************* Testing Individual Branch Integrity
   ************* All Branches passed integrity testing
   ************* Testing Individual Supply Air Path Integrity
   ************* All Supply Air Paths passed integrity testing
   ************* Testing Individual Return Air Path Integrity
   ************* All Return Air Paths passed integrity testing
   ************* No node connection errors were found.
   ************* Beginning Simulation
   ** Warning ** Processing Monthly Tabular Reports: Variable names not valid for this simulation
   **   ~~~   ** ...use Output:Diagnostics,DisplayExtraWarnings; to show more details on individual variables.
   ** Warning ** CoolingTower:VariableSpeed "PROPELLER OR AXIAL VARIABLE SPEED FAN OPEN COOLING TOWER 40.2 GPM/HP" - Tower approach temperature is outside model boundaries at 12.85.
   **   ~~~   **  ...Valid range = 1.11 to 11.11. Occurrence info = RUN PERIOD 1, 06/03 05:00 - 05:01
   **   ~~~   **  ...Tower approach temperature passed to the model = 12.84818
   **   ~~~   **  ...Approach temperatures outside model boundaries may not adversely affect tower performance.
   **   ~~~   **  ...This is not an unexpected occurrence when simulating actual conditions.
   ** Warning ** CoolingTower:VariableSpeed "PROPELLER OR AXIAL VARIABLE SPEED FAN OPEN COOLING TOWER 40.2 GPM/HP" - Tower range temperature is outside model boundaries at 0.64.
   **   ~~~   **  ...Valid range = 1.11 to 11.11. Occurrence info = RUN PERIOD 1, 06/03 05:47 - 05:48
   **   ~~~   **  ...Tower range temperature passed to the model = 0.64002
   **   ~~~   **  ...Range temperatures outside model boundaries may not adversely affect tower performance.
   **   ~~~   **  ...This is not an unexpected occurrence when simulating actual conditions.
   ** Warning ** CoolingTower:VariableSpeed "PROPELLER OR AXIAL VARIABLE SPEED FAN OPEN COOLING TOWER 40.2 GPM/HP" - Cooling tower air flow rate ratio calculation failed 
   **   ~~~   ** ...with conditions as Twb = 17.67, Trange =  3.40, Tapproach =  3.89, and water flow rate ratio =  1.00
   **   ~~~   ** ...a solution could not be found within the valid range of air flow rate ratios
   **   ~~~   **  ...Valid air flow rate ratio range =  0.20 to 1.0.
   **   ~~~   **  Environment=RUN PERIOD 1, at Simulation time=06/26 06:30 - 06:45
   **   ~~~   ** ...Consider modifying the design approach or design range temperature for this tower.
   ** Warning ** The resource referenced by LifeCycleCost:UsePriceEscalation= "U.S. AVG  COMMERCIAL-ELECTRICITY" has no energy cost. 
   **   ~~~   ** ... It is likely that the wrong resource is used. The resource should match the meter used in Utility:Tariff.
   ** Warning ** The resource referenced by LifeCycleCost:UsePriceEscalation= "U.S. AVG  COMMERCIAL-DISTILLATE OIL" has no energy cost. 
   **   ~~~   ** ... It is likely that the wrong resource is used. The resource should match the meter used in Utility:Tariff.
   ** Warning ** The resource referenced by LifeCycleCost:UsePriceEscalation= "U.S. AVG  COMMERCIAL-RESIDUAL OIL" has no energy cost. 
   **   ~~~   ** ... It is likely that the wrong resource is used. The resource should match the meter used in Utility:Tariff.
   ** Warning ** The resource referenced by LifeCycleCost:UsePriceEscalation= "U.S. AVG  COMMERCIAL-NATURAL GAS" has no energy cost. 
   **   ~~~   ** ... It is likely that the wrong resource is used. The resource should match the meter used in Utility:Tariff.
   ** Warning ** The resource referenced by LifeCycleCost:UsePriceEscalation= "U.S. AVG  COMMERCIAL-COAL" has no energy cost. 
   **   ~~~   ** ... It is likely that the wrong resource is used. The resource should match the meter used in Utility:Tariff.
   ************* Simulation Error Summary *************
   ** Warning ** The following Report Variables were requested but not generated -- check.rdd file
   **   ~~~   ** Either the IDF did not contain these elements, the variable name is misspelled,
   **   ~~~   ** or the requested variable is an advanced output which requires Output : Diagnostics, DisplayAdvancedReportVariables;
   ************* Key=*, VarName=FANGERPMV, Frequency=TimeStep
   ************* Key=*, VarName=FANGERPPD, Frequency=TimeStep
   ************* Key=*, VarName=TIME NOT COMFORTABLE SUMMER CLOTHES, Frequency=TimeStep
   ************* Key=*, VarName=TIME NOT COMFORTABLE WINTER CLOTHES, Frequency=TimeStep
   ************* Key=*, VarName=TIME NOT COMFORTABLE SUMMER OR WINTER CLOTHES, Frequency=TimeStep
   ************* Key=*, VarName=DISTRICT COOLING CHILLED WATER RATE, Frequency=TimeStep
   ************* Key=*, VarName=DISTRICT COOLING MASS FLOW RATE, Frequency=TimeStep
   ************* Key=*, VarName=DISTRICT COOLING INLET TEMPERATURE, Frequency=TimeStep
   ************* Key=*, VarName=DISTRICT COOLING OUTLET TEMPERATURE, Frequency=TimeStep
   ************* Key=*, VarName=DISTRICT HEATING HOT WATER RATE, Frequency=TimeStep
   ************* Key=*, VarName=DISTRICT HEATING MASS FLOW RATE, Frequency=TimeStep
   ************* Key=*, VarName=DISTRICT HEATING INLET TEMPERATURE, Frequency=TimeStep
   ************* Key=*, VarName=DISTRICT HEATING OUTLET TEMPERATURE, Frequency=TimeStep
   ************* There are 8 unused schedules in input.
   ************* There are 13 unused week schedules in input.
   ************* There are 34 unused day schedules in input.
   ************* Use Output:Diagnostics,DisplayUnusedSchedules; to see them.
   *************
   ************* ===== Recurring Error Summary =====
   ************* The following recurring error messages occurred.
   *************
   *************  ** Warning ** CoolingTower:VariableSpeed "PROPELLER OR AXIAL VARIABLE SPEED FAN OPEN COOLING TOWER 40.2 GPM/HP" - Tower approach temperature is out of range error continues...
   *************  **   ~~~   **   This error occurred 796 total times;
   *************  **   ~~~   **   during Warmup 0 times;
   *************  **   ~~~   **   during Sizing 0 times.
   *************  **   ~~~   **   Max=16.256998  Min=11.111621
   *************
   *************  ** Warning ** CoolingTower:VariableSpeed "PROPELLER OR AXIAL VARIABLE SPEED FAN OPEN COOLING TOWER 40.2 GPM/HP" - Tower range temperature is out of range error continues...
   *************  **   ~~~   **   This error occurred 221 total times;
   *************  **   ~~~   **   during Warmup 0 times;
   *************  **   ~~~   **   during Sizing 0 times.
   *************  **   ~~~   **   Max=1.103641  Min=7.295996E-004
   *************
   *************
   ************* ===== Final Error Summary =====
   ************* The following error categories occurred.  Consider correcting or noting.
   ************* Nominally Unused Constructions
   ************* ..The nominally unused constructions warning is provided to alert you to potential conditions that can cause
   ************* ..extra time during simulation. Each construction is calculated by the algorithm indicated in the HeatBalanceAlgorithm
   ************* ..object. You may remove the constructions indicated (when you use the DisplayExtraWarnings option).
   *************
   ************* EnergyPlus Warmup Error Summary. During Warmup: 0 Warning; 0 Severe Errors.
   ************* EnergyPlus Sizing Error Summary. During Sizing: 27 Warning; 0 Severe Errors.
   ************* EnergyPlus Completed Successfully-- 1143 Warning; 0 Severe Errors; Elapsed Time=00hr 00min 17.84sec
