Program Version,EnergyPlus, Version 9.1.0-fafb9d5652, YMD=2020.03.24 18:14
! This file shows details about the branches, nodes, and other
! elements of the flow connections.
! This file is intended for use in "debugging" potential problems
! that may also be detected by the program, but may be more easily
! identified by "eye".
! This file is also intended to support software which draws a
! schematic diagram of the HVAC system.
! ===============================================================
! #Nodes,<Number of Unique Nodes>
 #Nodes,111
! <Node>,<NodeNumber>,<Node Name>,<Node Fluid Type>,<# Times Node Referenced After Definition>
 Node,1,BUILDING STORY 1 THERMALZONE VAV TERMINAL OUTLET AIR NODE,Air,4
 Node,2,BUILDING STORY 1 THERMALZONE RETURN AIR NODE,Air,2
 Node,3,BUILDING STORY 2 THERMALZONE VAV TERMINAL OUTLET AIR NODE,Air,4
 Node,4,BUILDING STORY 2 THERMALZONE RETURN AIR NODE,Air,2
 Node,5,BUILDING STORY 3 THERMALZONE VAV TERMINAL OUTLET AIR NODE,Air,4
 Node,6,BUILDING STORY 3 THERMALZONE RETURN AIR NODE,Air,2
 Node,7,1 ZONE PVAV SUPPLY OUTLET NODE,Air,10
 Node,8,1 ZONE PVAV DEMAND INLET NODE,Air,3
 Node,9,1 ZONE PVAV 1 SUPPLY OUTLET NODE,Air,10
 Node,10,1 ZONE PVAV 1 DEMAND INLET NODE,Air,3
 Node,11,1 ZONE PVAV 2 SUPPLY OUTLET NODE,Air,10
 Node,12,1 ZONE PVAV 2 DEMAND INLET NODE,Air,3
 Node,13,1 ZONE PVAV SUPPLY INLET NODE,Air,3
 Node,14,1 ZONE PVAV MIXED AIR NODE,Air,6
 Node,15,1 ZONE PVAV 2SPD DX CLG COIL OUTLET AIR NODE,Air,6
 Node,16,1 ZONE PVAV MAIN HTG COIL OUTLET AIR NODE,Air,8
 Node,17,1 ZONE PVAV 1 SUPPLY INLET NODE,Air,3
 Node,18,1 ZONE PVAV 1 MIXED AIR NODE,Air,6
 Node,19,1 ZONE PVAV 1 2SPD DX CLG COIL OUTLET AIR NODE,Air,6
 Node,20,1 ZONE PVAV 1 MAIN HTG COIL OUTLET AIR NODE,Air,8
 Node,21,1 ZONE PVAV 2 SUPPLY INLET NODE,Air,3
 Node,22,1 ZONE PVAV 2 MIXED AIR NODE,Air,6
 Node,23,1 ZONE PVAV 2 2SPD DX CLG COIL OUTLET AIR NODE,Air,6
 Node,24,1 ZONE PVAV 2 MAIN HTG COIL OUTLET AIR NODE,Air,8
 Node,25,FULLSERVICERESTAURANT KITCHEN - 90.1-2013 SERVICE WATER BOOSTER LOOP SUPPLY INLET NODE,Water,2
 Node,26,BOOSTER WATER LOOP PUMP INLET WATER NODE,Water,3
 Node,27,BOOSTER WATER LOOP PUMP OUTLET WATER NODE,Water,1
 Node,28,6.0GAL ELECTRICITY BOOSTER WATER HEATER - 367KBTU/HR SUPPLY INLET WATER NODE,Water,1
 Node,29,6.0GAL ELECTRICITY BOOSTER WATER HEATER - 367KBTU/HR SUPPLY OUTLET WATER NODE,Water,1
 Node,30,PIPE ADIABATIC 5 INLET WATER NODE,Water,1
 Node,31,PIPE ADIABATIC 5 OUTLET WATER NODE,Water,1
 Node,32,PIPE ADIABATIC 7 INLET WATER NODE,Water,1
 Node,33,FULLSERVICERESTAURANT KITCHEN - 90.1-2013 SERVICE WATER BOOSTER LOOP SUPPLY OUTLET NODE,Water,5
 Node,34,FULLSERVICERESTAURANT KITCHEN - 90.1-2013 SERVICE WATER BOOSTER LOOP DEMAND INLET NODE,Water,2
 Node,35,PIPE ADIABATIC 8 OUTLET WATER NODE,Water,1
 Node,36,PIPE ADIABATIC 6 INLET WATER NODE,Water,1
 Node,37,PIPE ADIABATIC 6 OUTLET WATER NODE,Water,1
 Node,38,BOOSTER FULLSERVICERESTAURANT KITCHEN - 90.1-2013 WUC 30.37GPM AT 180F INLET WATER NODE,Water,1
 Node,39,BOOSTER FULLSERVICERESTAURANT KITCHEN - 90.1-2013 WUC 30.37GPM AT 180F OUTLET WATER NODE,Water,1
 Node,40,FULLSERVICERESTAURANT KITCHEN - 90.1-2013 SERVICE WATER BOOSTER LOOP DEMAND BYPASS PIPE INLET NODE,Water,1
 Node,41,FULLSERVICERESTAURANT KITCHEN - 90.1-2013 SERVICE WATER BOOSTER LOOP DEMAND BYPASS PIPE OUTLET NODE,Water,1
 Node,42,PIPE ADIABATIC 9 INLET WATER NODE,Water,1
 Node,43,FULLSERVICERESTAURANT KITCHEN - 90.1-2013 SERVICE WATER BOOSTER LOOP DEMAND OUTLET NODE,Water,2
 Node,44,FULLSERVICERESTAURANT KITCHEN - 90.1-2013 SERVICE WATER LOOP SUPPLY INLET NODE,Water,2
 Node,45,FULLSERVICERESTAURANT KITCHEN - 90.1-2013 SERVICE WATER LOOP WATER MAINS PRESSURE DRIVEN OUTLET WATER NODE,Water,1
 Node,46,1913GAL NATURALGAS WATER HEATER - 1913KBTU/HR SUPPLY INLET WATER NODE,Water,1
 Node,47,1913GAL NATURALGAS WATER HEATER - 1913KBTU/HR SUPPLY OUTLET WATER NODE,Water,1
 Node,48,PIPE ADIABATIC 1 INLET WATER NODE,Water,1
 Node,49,PIPE ADIABATIC 1 OUTLET WATER NODE,Water,1
 Node,50,PIPE ADIABATIC 3 INLET WATER NODE,Water,1
 Node,51,FULLSERVICERESTAURANT KITCHEN - 90.1-2013 SERVICE WATER LOOP SUPPLY OUTLET NODE,Water,4
 Node,52,FULLSERVICERESTAURANT KITCHEN - 90.1-2013 SERVICE WATER LOOP DEMAND INLET NODE,Water,2
 Node,53,FULLSERVICERESTAURANT KITCHEN - 90.1-2013 SERVICE WATER LOOP PIPE 20.0FT OUTLET WATER NODE,Water,1
 Node,54,PIPE ADIABATIC 2 INLET WATER NODE,Water,1
 Node,55,PIPE ADIABATIC 2 OUTLET WATER NODE,Water,1
 Node,56,FULLSERVICERESTAURANT KITCHEN - 90.1-2013 WUC 20.25GPM AT 140F INLET WATER NODE,Water,1
 Node,57,FULLSERVICERESTAURANT KITCHEN - 90.1-2013 WUC 20.25GPM AT 140F OUTLET WATER NODE,Water,1
 Node,58,HX FOR BOOSTER WATER HEATING DEMAND INLET WATER NODE,Water,1
 Node,59,MAINS WATER MAKEUP FOR SWH BOOSTER INLET WATER NODE,Water,3
 Node,60,MAINS WATER MAKEUP FOR SWH BOOSTER OUTLET WATER NODE,Water,1
 Node,61,FULLSERVICERESTAURANT KITCHEN - 90.1-2013 SERVICE WATER LOOP DEMAND BYPASS PIPE INLET NODE,Water,1
 Node,62,FULLSERVICERESTAURANT KITCHEN - 90.1-2013 SERVICE WATER LOOP DEMAND BYPASS PIPE OUTLET NODE,Water,1
 Node,63,PIPE ADIABATIC 4 INLET WATER NODE,Water,1
 Node,64,FULLSERVICERESTAURANT KITCHEN - 90.1-2013 SERVICE WATER LOOP DEMAND OUTLET NODE,Water,2
 Node,65,HOT WATER LOOP SUPPLY INLET NODE,Water,2
 Node,66,HOT WATER LOOP PUMP OUTLET WATER NODE,Water,1
 Node,67,BOILER INLET WATER NODE,Water,1
 Node,68,BOILER OUTLET WATER NODE,Water,1
 Node,69,HOT WATER LOOP SUPPLY EQUIPMENT BYPASS INLET WATER NODE,Water,1
 Node,70,HOT WATER LOOP SUPPLY EQUIPMENT BYPASS OUTLET WATER NODE,Water,1
 Node,71,HOT WATER LOOP SUPPLY OUTLET INLET WATER NODE,Water,1
 Node,72,HOT WATER LOOP SUPPLY OUTLET NODE,Water,4
 Node,73,HOT WATER LOOP DEMAND INLET NODE,Water,2
 Node,74,HOT WATER LOOP DEMAND INLET OUTLET WATER NODE,Water,1
 Node,75,HOT WATER LOOP COIL BYPASS INLET WATER NODE,Water,1
 Node,76,HOT WATER LOOP COIL BYPASS OUTLET WATER NODE,Water,1
 Node,77,1 ZONE PVAV MAIN HTG COIL INLET WATER NODE,Water,2
 Node,78,1 ZONE PVAV MAIN HTG COIL OUTLET WATER NODE,Water,1
 Node,79,BUILDING STORY 1 THERMALZONE REHEAT COIL INLET WATER NODE,Water,1
 Node,80,BUILDING STORY 1 THERMALZONE REHEAT COIL OUTLET WATER NODE,Water,1
 Node,81,1 ZONE PVAV 1 MAIN HTG COIL INLET WATER NODE,Water,2
 Node,82,1 ZONE PVAV 1 MAIN HTG COIL OUTLET WATER NODE,Water,1
 Node,83,BUILDING STORY 2 THERMALZONE REHEAT COIL INLET WATER NODE,Water,1
 Node,84,BUILDING STORY 2 THERMALZONE REHEAT COIL OUTLET WATER NODE,Water,1
 Node,85,1 ZONE PVAV 2 MAIN HTG COIL INLET WATER NODE,Water,2
 Node,86,1 ZONE PVAV 2 MAIN HTG COIL OUTLET WATER NODE,Water,1
 Node,87,BUILDING STORY 3 THERMALZONE REHEAT COIL INLET WATER NODE,Water,1
 Node,88,BUILDING STORY 3 THERMALZONE REHEAT COIL OUTLET WATER NODE,Water,1
 Node,89,HOT WATER LOOP DEMAND BYPASS PIPE INLET NODE,Water,1
 Node,90,HOT WATER LOOP DEMAND BYPASS PIPE OUTLET NODE,Water,1
 Node,91,HOT WATER LOOP DEMAND OUTLET INLET WATER NODE,Water,1
 Node,92,HOT WATER LOOP DEMAND OUTLET NODE,Water,2
 Node,93,BUILDING STORY 1 THERMALZONE ZONE AIR NODE,Air,0
 Node,94,BUILDING STORY 2 THERMALZONE ZONE AIR NODE,Air,0
 Node,95,BUILDING STORY 3 THERMALZONE ZONE AIR NODE,Air,0
 Node,96,1 ZONE PVAV DEMAND OUTLET NODE,Air,2
 Node,97,1 ZONE PVAV 1 DEMAND OUTLET NODE,Air,2
 Node,98,1 ZONE PVAV 2 DEMAND OUTLET NODE,Air,2
 Node,99,1 ZONE PVAV OUTDOOR AIR NODE,Air,2
 Node,100,1 ZONE PVAV 1 OUTDOOR AIR NODE,Air,2
 Node,101,1 ZONE PVAV 2 OUTDOOR AIR NODE,Air,2
 Node,102,MODEL OUTDOOR AIR NODE,Air,0
 Node,103,BUILDING STORY 1 THERMALZONE VAV TERMINAL INLET AIR NODE,Air,1
 Node,104,BUILDING STORY 2 THERMALZONE VAV TERMINAL INLET AIR NODE,Air,1
 Node,105,BUILDING STORY 3 THERMALZONE VAV TERMINAL INLET AIR NODE,Air,1
 Node,106,BUILDING STORY 1 THERMALZONE VAV TERMINAL DAMPER OUTLET,Air,1
 Node,107,BUILDING STORY 2 THERMALZONE VAV TERMINAL DAMPER OUTLET,Air,1
 Node,108,BUILDING STORY 3 THERMALZONE VAV TERMINAL DAMPER OUTLET,Air,1
 Node,109,1 ZONE PVAV RELIEF AIR NODE,Air,1
 Node,110,1 ZONE PVAV 1 RELIEF AIR NODE,Air,1
 Node,111,1 ZONE PVAV 2 RELIEF AIR NODE,Air,1
! ===============================================================
! Suspicious nodes have 0 references.  It is normal for some nodes, however.
! Listing nodes with 0 references (culled from previous list):
! <Suspicious Node>,<NodeNumber>,<Node Name>,<Node Fluid Type>,<# Times Node Referenced After Definition>
 Suspicious Node,93,BUILDING STORY 1 THERMALZONE ZONE AIR NODE,Air,0
 Suspicious Node,94,BUILDING STORY 2 THERMALZONE ZONE AIR NODE,Air,0
 Suspicious Node,95,BUILDING STORY 3 THERMALZONE ZONE AIR NODE,Air,0
 Suspicious Node,102,MODEL OUTDOOR AIR NODE,Air,0
! ===============================================================
! <#Branch Lists>,<Number of Branch Lists>
 #Branch Lists,9
! <Branch List>,<Branch List Count>,<Branch List Name>,<Loop Name>,<Loop Type>,<Number of Branches>
! <Branch>,<Branch Count>,<Branch Name>,<Loop Name>,<Loop Type>,<Branch Inlet Node Name>,<Branch Outlet Node Name>
 Branch List,1,1 ZONE PVAV SUPPLY BRANCHES,1 ZONE PVAV,Air,1
   Branch,1,1 ZONE PVAV MAIN BRANCH,1 ZONE PVAV,Air,1 ZONE PVAV SUPPLY INLET NODE,1 ZONE PVAV SUPPLY OUTLET NODE
 Branch List,2,1 ZONE PVAV 1 SUPPLY BRANCHES,1 ZONE PVAV 1,Air,1
   Branch,1,1 ZONE PVAV 1 MAIN BRANCH,1 ZONE PVAV 1,Air,1 ZONE PVAV 1 SUPPLY INLET NODE,1 ZONE PVAV 1 SUPPLY OUTLET NODE
 Branch List,3,1 ZONE PVAV 2 SUPPLY BRANCHES,1 ZONE PVAV 2,Air,1
   Branch,1,1 ZONE PVAV 2 MAIN BRANCH,1 ZONE PVAV 2,Air,1 ZONE PVAV 2 SUPPLY INLET NODE,1 ZONE PVAV 2 SUPPLY OUTLET NODE
 Branch List,4,FULLSERVICERESTAURANT KITCHEN - 90.1-2013 SERVICE WATER BOOSTER LOOP SUPPLY BRANCHES,FULLSERVICERESTAURANT KITCHEN - 90.1-2013 SERVICE WATER BOOSTER LOOP,Plant Supply,4
   Branch,1,FULLSERVICERESTAURANT KITCHEN - 90.1-2013 SERVICE WATER BOOSTER LOOP SUPPLY INLET BRANCH,FULLSERVICERESTAURANT KITCHEN - 90.1-2013 SERVICE WATER BOOSTER LOOP,Plant Supply,FULLSERVICERESTAURANT KITCHEN - 90.1-2013 SERVICE WATER BOOSTER LOOP SUPPLY INLET NODE,BOOSTER WATER LOOP PUMP OUTLET WATER NODE
   Branch,2,FULLSERVICERESTAURANT KITCHEN - 90.1-2013 SERVICE WATER BOOSTER LOOP SUPPLY BRANCH 1,FULLSERVICERESTAURANT KITCHEN - 90.1-2013 SERVICE WATER BOOSTER LOOP,Plant Supply,6.0GAL ELECTRICITY BOOSTER WATER HEATER - 367KBTU/HR SUPPLY INLET WATER NODE,6.0GAL ELECTRICITY BOOSTER WATER HEATER - 367KBTU/HR SUPPLY OUTLET WATER NODE
   Branch,3,FULLSERVICERESTAURANT KITCHEN - 90.1-2013 SERVICE WATER BOOSTER LOOP SUPPLY BRANCH 2,FULLSERVICERESTAURANT KITCHEN - 90.1-2013 SERVICE WATER BOOSTER LOOP,Plant Supply,PIPE ADIABATIC 5 INLET WATER NODE,PIPE ADIABATIC 5 OUTLET WATER NODE
   Branch,4,FULLSERVICERESTAURANT KITCHEN - 90.1-2013 SERVICE WATER BOOSTER LOOP SUPPLY OUTLET BRANCH,FULLSERVICERESTAURANT KITCHEN - 90.1-2013 SERVICE WATER BOOSTER LOOP,Plant Supply,PIPE ADIABATIC 7 INLET WATER NODE,FULLSERVICERESTAURANT KITCHEN - 90.1-2013 SERVICE WATER BOOSTER LOOP SUPPLY OUTLET NODE
 Branch List,5,FULLSERVICERESTAURANT KITCHEN - 90.1-2013 SERVICE WATER BOOSTER LOOP DEMAND BRANCHES,FULLSERVICERESTAURANT KITCHEN - 90.1-2013 SERVICE WATER BOOSTER LOOP,Plant Demand,5
   Branch,1,FULLSERVICERESTAURANT KITCHEN - 90.1-2013 SERVICE WATER BOOSTER LOOP DEMAND INLET BRANCH,FULLSERVICERESTAURANT KITCHEN - 90.1-2013 SERVICE WATER BOOSTER LOOP,Plant Demand,FULLSERVICERESTAURANT KITCHEN - 90.1-2013 SERVICE WATER BOOSTER LOOP DEMAND INLET NODE,PIPE ADIABATIC 8 OUTLET WATER NODE
   Branch,2,FULLSERVICERESTAURANT KITCHEN - 90.1-2013 SERVICE WATER BOOSTER LOOP DEMAND BRANCH 1,FULLSERVICERESTAURANT KITCHEN - 90.1-2013 SERVICE WATER BOOSTER LOOP,Plant Demand,PIPE ADIABATIC 6 INLET WATER NODE,PIPE ADIABATIC 6 OUTLET WATER NODE
   Branch,3,FULLSERVICERESTAURANT KITCHEN - 90.1-2013 SERVICE WATER BOOSTER LOOP DEMAND BRANCH 2,FULLSERVICERESTAURANT KITCHEN - 90.1-2013 SERVICE WATER BOOSTER LOOP,Plant Demand,BOOSTER FULLSERVICERESTAURANT KITCHEN - 90.1-2013 WUC 30.37GPM AT 180F INLET WATER NODE,BOOSTER FULLSERVICERESTAURANT KITCHEN - 90.1-2013 WUC 30.37GPM AT 180F OUTLET WATER NODE
   Branch,4,FULLSERVICERESTAURANT KITCHEN - 90.1-2013 SERVICE WATER BOOSTER LOOP DEMAND BYPASS BRANCH,FULLSERVICERESTAURANT KITCHEN - 90.1-2013 SERVICE WATER BOOSTER LOOP,Plant Demand,FULLSERVICERESTAURANT KITCHEN - 90.1-2013 SERVICE WATER BOOSTER LOOP DEMAND BYPASS PIPE INLET NODE,FULLSERVICERESTAURANT KITCHEN - 90.1-2013 SERVICE WATER BOOSTER LOOP DEMAND BYPASS PIPE OUTLET NODE
   Branch,5,FULLSERVICERESTAURANT KITCHEN - 90.1-2013 SERVICE WATER BOOSTER LOOP DEMAND OUTLET BRANCH,FULLSERVICERESTAURANT KITCHEN - 90.1-2013 SERVICE WATER BOOSTER LOOP,Plant Demand,PIPE ADIABATIC 9 INLET WATER NODE,FULLSERVICERESTAURANT KITCHEN - 90.1-2013 SERVICE WATER BOOSTER LOOP DEMAND OUTLET NODE
 Branch List,6,FULLSERVICERESTAURANT KITCHEN - 90.1-2013 SERVICE WATER LOOP SUPPLY BRANCHES,FULLSERVICERESTAURANT KITCHEN - 90.1-2013 SERVICE WATER LOOP,Plant Supply,4
   Branch,1,FULLSERVICERESTAURANT KITCHEN - 90.1-2013 SERVICE WATER LOOP SUPPLY INLET BRANCH,FULLSERVICERESTAURANT KITCHEN - 90.1-2013 SERVICE WATER LOOP,Plant Supply,FULLSERVICERESTAURANT KITCHEN - 90.1-2013 SERVICE WATER LOOP SUPPLY INLET NODE,FULLSERVICERESTAURANT KITCHEN - 90.1-2013 SERVICE WATER LOOP WATER MAINS PRESSURE DRIVEN OUTLET WATER NODE
   Branch,2,FULLSERVICERESTAURANT KITCHEN - 90.1-2013 SERVICE WATER LOOP SUPPLY BRANCH 1,FULLSERVICERESTAURANT KITCHEN - 90.1-2013 SERVICE WATER LOOP,Plant Supply,1913GAL NATURALGAS WATER HEATER - 1913KBTU/HR SUPPLY INLET WATER NODE,1913GAL NATURALGAS WATER HEATER - 1913KBTU/HR SUPPLY OUTLET WATER NODE
   Branch,3,FULLSERVICERESTAURANT KITCHEN - 90.1-2013 SERVICE WATER LOOP SUPPLY BRANCH 2,FULLSERVICERESTAURANT KITCHEN - 90.1-2013 SERVICE WATER LOOP,Plant Supply,PIPE ADIABATIC 1 INLET WATER NODE,PIPE ADIABATIC 1 OUTLET WATER NODE
   Branch,4,FULLSERVICERESTAURANT KITCHEN - 90.1-2013 SERVICE WATER LOOP SUPPLY OUTLET BRANCH,FULLSERVICERESTAURANT KITCHEN - 90.1-2013 SERVICE WATER LOOP,Plant Supply,PIPE ADIABATIC 3 INLET WATER NODE,FULLSERVICERESTAURANT KITCHEN - 90.1-2013 SERVICE WATER LOOP SUPPLY OUTLET NODE
 Branch List,7,FULLSERVICERESTAURANT KITCHEN - 90.1-2013 SERVICE WATER LOOP DEMAND BRANCHES,FULLSERVICERESTAURANT KITCHEN - 90.1-2013 SERVICE WATER LOOP,Plant Demand,6
   Branch,1,FULLSERVICERESTAURANT KITCHEN - 90.1-2013 SERVICE WATER LOOP DEMAND INLET BRANCH,FULLSERVICERESTAURANT KITCHEN - 90.1-2013 SERVICE WATER LOOP,Plant Demand,FULLSERVICERESTAURANT KITCHEN - 90.1-2013 SERVICE WATER LOOP DEMAND INLET NODE,FULLSERVICERESTAURANT KITCHEN - 90.1-2013 SERVICE WATER LOOP PIPE 20.0FT OUTLET WATER NODE
   Branch,2,FULLSERVICERESTAURANT KITCHEN - 90.1-2013 SERVICE WATER LOOP DEMAND BRANCH 1,FULLSERVICERESTAURANT KITCHEN - 90.1-2013 SERVICE WATER LOOP,Plant Demand,PIPE ADIABATIC 2 INLET WATER NODE,PIPE ADIABATIC 2 OUTLET WATER NODE
   Branch,3,FULLSERVICERESTAURANT KITCHEN - 90.1-2013 SERVICE WATER LOOP DEMAND BRANCH 2,FULLSERVICERESTAURANT KITCHEN - 90.1-2013 SERVICE WATER LOOP,Plant Demand,FULLSERVICERESTAURANT KITCHEN - 90.1-2013 WUC 20.25GPM AT 140F INLET WATER NODE,FULLSERVICERESTAURANT KITCHEN - 90.1-2013 WUC 20.25GPM AT 140F OUTLET WATER NODE
   Branch,4,FULLSERVICERESTAURANT KITCHEN - 90.1-2013 SERVICE WATER LOOP DEMAND BRANCH 3,FULLSERVICERESTAURANT KITCHEN - 90.1-2013 SERVICE WATER LOOP,Plant Demand,HX FOR BOOSTER WATER HEATING DEMAND INLET WATER NODE,MAINS WATER MAKEUP FOR SWH BOOSTER OUTLET WATER NODE
   Branch,5,FULLSERVICERESTAURANT KITCHEN - 90.1-2013 SERVICE WATER LOOP DEMAND BYPASS BRANCH,FULLSERVICERESTAURANT KITCHEN - 90.1-2013 SERVICE WATER LOOP,Plant Demand,FULLSERVICERESTAURANT KITCHEN - 90.1-2013 SERVICE WATER LOOP DEMAND BYPASS PIPE INLET NODE,FULLSERVICERESTAURANT KITCHEN - 90.1-2013 SERVICE WATER LOOP DEMAND BYPASS PIPE OUTLET NODE
   Branch,6,FULLSERVICERESTAURANT KITCHEN - 90.1-2013 SERVICE WATER LOOP DEMAND OUTLET BRANCH,FULLSERVICERESTAURANT KITCHEN - 90.1-2013 SERVICE WATER LOOP,Plant Demand,PIPE ADIABATIC 4 INLET WATER NODE,FULLSERVICERESTAURANT KITCHEN - 90.1-2013 SERVICE WATER LOOP DEMAND OUTLET NODE
 Branch List,8,HOT WATER LOOP SUPPLY BRANCHES,HOT WATER LOOP,Plant Supply,4
   Branch,1,HOT WATER LOOP SUPPLY INLET BRANCH,HOT WATER LOOP,Plant Supply,HOT WATER LOOP SUPPLY INLET NODE,HOT WATER LOOP PUMP OUTLET WATER NODE
   Branch,2,HOT WATER LOOP SUPPLY BRANCH 1,HOT WATER LOOP,Plant Supply,BOILER INLET WATER NODE,BOILER OUTLET WATER NODE
   Branch,3,HOT WATER LOOP SUPPLY BRANCH 2,HOT WATER LOOP,Plant Supply,HOT WATER LOOP SUPPLY EQUIPMENT BYPASS INLET WATER NODE,HOT WATER LOOP SUPPLY EQUIPMENT BYPASS OUTLET WATER NODE
   Branch,4,HOT WATER LOOP SUPPLY OUTLET BRANCH,HOT WATER LOOP,Plant Supply,HOT WATER LOOP SUPPLY OUTLET INLET WATER NODE,HOT WATER LOOP SUPPLY OUTLET NODE
 Branch List,9,HOT WATER LOOP DEMAND BRANCHES,HOT WATER LOOP,Plant Demand,10
   Branch,1,HOT WATER LOOP DEMAND INLET BRANCH,HOT WATER LOOP,Plant Demand,HOT WATER LOOP DEMAND INLET NODE,HOT WATER LOOP DEMAND INLET OUTLET WATER NODE
   Branch,2,HOT WATER LOOP DEMAND BRANCH 1,HOT WATER LOOP,Plant Demand,HOT WATER LOOP COIL BYPASS INLET WATER NODE,HOT WATER LOOP COIL BYPASS OUTLET WATER NODE
   Branch,3,HOT WATER LOOP DEMAND BRANCH 2,HOT WATER LOOP,Plant Demand,1 ZONE PVAV MAIN HTG COIL INLET WATER NODE,1 ZONE PVAV MAIN HTG COIL OUTLET WATER NODE
   Branch,4,HOT WATER LOOP DEMAND BRANCH 3,HOT WATER LOOP,Plant Demand,BUILDING STORY 1 THERMALZONE REHEAT COIL INLET WATER NODE,BUILDING STORY 1 THERMALZONE REHEAT COIL OUTLET WATER NODE
   Branch,5,HOT WATER LOOP DEMAND BRANCH 4,HOT WATER LOOP,Plant Demand,1 ZONE PVAV 1 MAIN HTG COIL INLET WATER NODE,1 ZONE PVAV 1 MAIN HTG COIL OUTLET WATER NODE
   Branch,6,HOT WATER LOOP DEMAND BRANCH 5,HOT WATER LOOP,Plant Demand,BUILDING STORY 2 THERMALZONE REHEAT COIL INLET WATER NODE,BUILDING STORY 2 THERMALZONE REHEAT COIL OUTLET WATER NODE
   Branch,7,HOT WATER LOOP DEMAND BRANCH 6,HOT WATER LOOP,Plant Demand,1 ZONE PVAV 2 MAIN HTG COIL INLET WATER NODE,1 ZONE PVAV 2 MAIN HTG COIL OUTLET WATER NODE
   Branch,8,HOT WATER LOOP DEMAND BRANCH 7,HOT WATER LOOP,Plant Demand,BUILDING STORY 3 THERMALZONE REHEAT COIL INLET WATER NODE,BUILDING STORY 3 THERMALZONE REHEAT COIL OUTLET WATER NODE
   Branch,9,HOT WATER LOOP DEMAND BYPASS BRANCH,HOT WATER LOOP,Plant Demand,HOT WATER LOOP DEMAND BYPASS PIPE INLET NODE,HOT WATER LOOP DEMAND BYPASS PIPE OUTLET NODE
   Branch,10,HOT WATER LOOP DEMAND OUTLET BRANCH,HOT WATER LOOP,Plant Demand,HOT WATER LOOP DEMAND OUTLET INLET WATER NODE,HOT WATER LOOP DEMAND OUTLET NODE
! ===============================================================
! <#Supply Air Paths>,<Number of Supply Air Paths>
 #Supply Air Paths,3
! <Supply Air Path>,<Supply Air Path Count>,<Supply Air Path Name>,<AirLoopHVAC Name>
! <#Components on Supply Air Path>,<Number of Components>
! <Supply Air Path Component>,<Component Count>,<Component Type>,<Component Name>,<AirLoopHVAC Name>
! <#Outlet Nodes on Supply Air Path Component>,<Number of Nodes>
! <Supply Air Path Component Nodes>,<Node Count>,<Component Type>,<Component Name>,<Inlet Node Name>,<Outlet Node Name>,<AirLoopHVAC Name>
 Supply Air Path,1,1 ZONE PVAV 1 ZONE PVAV DEMAND INLET NODE SUPPLY PATH,1 ZONE PVAV
   #Components on Supply Air Path,1
   Supply Air Path Component,1,AIRLOOPHVAC:ZONESPLITTER,AIR LOOP HVAC ZONE SPLITTER 1,1 ZONE PVAV
     #Outlet Nodes on Supply Air Path Component,1
     Supply Air Path Component Nodes,1,AIRLOOPHVAC:ZONESPLITTER,AIR LOOP HVAC ZONE SPLITTER 1,1 ZONE PVAV DEMAND INLET NODE,BUILDING STORY 1 THERMALZONE VAV TERMINAL INLET AIR NODE,1 ZONE PVAV
! <#Nodes on Supply Air Path>,<Number of Nodes>
! <Supply Air Path Node>,<Node Type>,<Node Count>,<Node Name>,<AirLoopHVAC Name>
#Nodes on Supply Air Path,2
   Supply Air Path Node,Inlet Node,1,1 ZONE PVAV DEMAND INLET NODE,1 ZONE PVAV
   Supply Air Path Node,Outlet Node,2,BUILDING STORY 1 THERMALZONE VAV TERMINAL INLET AIR NODE,1 ZONE PVAV
 Supply Air Path,2,1 ZONE PVAV 1 1 ZONE PVAV 1 DEMAND INLET NODE SUPPLY PATH,1 ZONE PVAV 1
   #Components on Supply Air Path,1
   Supply Air Path Component,1,AIRLOOPHVAC:ZONESPLITTER,AIR LOOP HVAC ZONE SPLITTER 2,1 ZONE PVAV 1
     #Outlet Nodes on Supply Air Path Component,1
     Supply Air Path Component Nodes,1,AIRLOOPHVAC:ZONESPLITTER,AIR LOOP HVAC ZONE SPLITTER 2,1 ZONE PVAV 1 DEMAND INLET NODE,BUILDING STORY 2 THERMALZONE VAV TERMINAL INLET AIR NODE,1 ZONE PVAV 1
! <#Nodes on Supply Air Path>,<Number of Nodes>
! <Supply Air Path Node>,<Node Type>,<Node Count>,<Node Name>,<AirLoopHVAC Name>
#Nodes on Supply Air Path,2
   Supply Air Path Node,Inlet Node,1,1 ZONE PVAV 1 DEMAND INLET NODE,1 ZONE PVAV 1
   Supply Air Path Node,Outlet Node,2,BUILDING STORY 2 THERMALZONE VAV TERMINAL INLET AIR NODE,1 ZONE PVAV 1
 Supply Air Path,3,1 ZONE PVAV 2 1 ZONE PVAV 2 DEMAND INLET NODE SUPPLY PATH,1 ZONE PVAV 2
   #Components on Supply Air Path,1
   Supply Air Path Component,1,AIRLOOPHVAC:ZONESPLITTER,AIR LOOP HVAC ZONE SPLITTER 3,1 ZONE PVAV 2
     #Outlet Nodes on Supply Air Path Component,1
     Supply Air Path Component Nodes,1,AIRLOOPHVAC:ZONESPLITTER,AIR LOOP HVAC ZONE SPLITTER 3,1 ZONE PVAV 2 DEMAND INLET NODE,BUILDING STORY 3 THERMALZONE VAV TERMINAL INLET AIR NODE,1 ZONE PVAV 2
! <#Nodes on Supply Air Path>,<Number of Nodes>
! <Supply Air Path Node>,<Node Type>,<Node Count>,<Node Name>,<AirLoopHVAC Name>
#Nodes on Supply Air Path,2
   Supply Air Path Node,Inlet Node,1,1 ZONE PVAV 2 DEMAND INLET NODE,1 ZONE PVAV 2
   Supply Air Path Node,Outlet Node,2,BUILDING STORY 3 THERMALZONE VAV TERMINAL INLET AIR NODE,1 ZONE PVAV 2
! ===============================================================
! <#Return Air Paths>,<Number of Return Air Paths>
 #Return Air Paths,3
! <Return Air Path>,<Return Air Path Count>,<Return Air Path Name>,<AirLoopHVAC Name>
! <#Components on Return Air Path>,<Number of Components>
! <Return Air Path Component>,<Component Count>,<Component Type>,<Component Name>,<AirLoopHVAC Name>
! <#Inlet Nodes on Return Air Path Component>,<Number of Nodes>
! <Return Air Path Component Nodes>,<Node Count>,<Component Type>,<Component Name>,<Inlet Node Name>,<Outlet Node Name>,<AirLoopHVAC Name>
 Return Air Path,1,1 ZONE PVAV RETURN PATH,1 ZONE PVAV
   #Components on Return Air Path,1
   Return Air Path Component,1,AIRLOOPHVAC:ZONEMIXER,AIR LOOP HVAC ZONE MIXER 1,1 ZONE PVAV
     #Inlet Nodes on Return Air Path Component,1
     Return Air Path Component Nodes,1,AIRLOOPHVAC:ZONEMIXER,AIR LOOP HVAC ZONE MIXER 1,BUILDING STORY 1 THERMALZONE RETURN AIR NODE,1 ZONE PVAV DEMAND OUTLET NODE,1 ZONE PVAV
! <#Nodes on Return Air Path>,<Number of Nodes>
! <Return Air Path Node>,<Node Type>,<Node Count>,<Node Name>,<AirLoopHVAC Name>
   #Nodes on Return Air Path,2
   Return Air Path Node,Outlet Node,1,1 ZONE PVAV DEMAND OUTLET NODE,1 ZONE PVAV
   Return Air Path Node,Inlet Node,2,BUILDING STORY 1 THERMALZONE RETURN AIR NODE,1 ZONE PVAV
 Return Air Path,2,1 ZONE PVAV 1 RETURN PATH,1 ZONE PVAV 1
   #Components on Return Air Path,1
   Return Air Path Component,1,AIRLOOPHVAC:ZONEMIXER,AIR LOOP HVAC ZONE MIXER 2,1 ZONE PVAV 1
     #Inlet Nodes on Return Air Path Component,1
     Return Air Path Component Nodes,1,AIRLOOPHVAC:ZONEMIXER,AIR LOOP HVAC ZONE MIXER 2,BUILDING STORY 2 THERMALZONE RETURN AIR NODE,1 ZONE PVAV 1 DEMAND OUTLET NODE,1 ZONE PVAV 1
! <#Nodes on Return Air Path>,<Number of Nodes>
! <Return Air Path Node>,<Node Type>,<Node Count>,<Node Name>,<AirLoopHVAC Name>
   #Nodes on Return Air Path,2
   Return Air Path Node,Outlet Node,1,1 ZONE PVAV 1 DEMAND OUTLET NODE,1 ZONE PVAV 1
   Return Air Path Node,Inlet Node,2,BUILDING STORY 2 THERMALZONE RETURN AIR NODE,1 ZONE PVAV 1
 Return Air Path,3,1 ZONE PVAV 2 RETURN PATH,1 ZONE PVAV 2
   #Components on Return Air Path,1
   Return Air Path Component,1,AIRLOOPHVAC:ZONEMIXER,AIR LOOP HVAC ZONE MIXER 3,1 ZONE PVAV 2
     #Inlet Nodes on Return Air Path Component,1
     Return Air Path Component Nodes,1,AIRLOOPHVAC:ZONEMIXER,AIR LOOP HVAC ZONE MIXER 3,BUILDING STORY 3 THERMALZONE RETURN AIR NODE,1 ZONE PVAV 2 DEMAND OUTLET NODE,1 ZONE PVAV 2
! <#Nodes on Return Air Path>,<Number of Nodes>
! <Return Air Path Node>,<Node Type>,<Node Count>,<Node Name>,<AirLoopHVAC Name>
   #Nodes on Return Air Path,2
   Return Air Path Node,Outlet Node,1,1 ZONE PVAV 2 DEMAND OUTLET NODE,1 ZONE PVAV 2
   Return Air Path Node,Inlet Node,2,BUILDING STORY 3 THERMALZONE RETURN AIR NODE,1 ZONE PVAV 2
! ===============================================================
! #Outdoor Air Nodes,<Number of Outdoor Air Nodes>
 #Outdoor Air Nodes,4
! <Outdoor Air Node>,<NodeNumber>,<Node Name>
 Outdoor Air Node,99,1 ZONE PVAV OUTDOOR AIR NODE
 Outdoor Air Node,100,1 ZONE PVAV 1 OUTDOOR AIR NODE
 Outdoor Air Node,101,1 ZONE PVAV 2 OUTDOOR AIR NODE
 Outdoor Air Node,102,MODEL OUTDOOR AIR NODE
! ===============================================================
! <#Component Sets>,<Number of Component Sets>
 #Component Sets,59
! <Component Set>,<Component Set Count>,<Parent Object Type>,<Parent Object Name>,<Component Type>,<Component Name>,<Inlet Node ID>,<Outlet Node ID>,<Description>
 Component Set,1,BRANCH,1 ZONE PVAV MAIN BRANCH,AIRLOOPHVAC:OUTDOORAIRSYSTEM,1 ZONE PVAV OA SYSTEM,1 ZONE PVAV SUPPLY INLET NODE,1 ZONE PVAV MIXED AIR NODE,Air Nodes
 Component Set,2,BRANCH,1 ZONE PVAV MAIN BRANCH,COILSYSTEM:COOLING:DX,1 ZONE PVAV 2SPD DX CLG COIL 2147KBTU/HR 9.5EER COILSYSTEM,1 ZONE PVAV MIXED AIR NODE,1 ZONE PVAV 2SPD DX CLG COIL OUTLET AIR NODE,Air Nodes
 Component Set,3,BRANCH,1 ZONE PVAV MAIN BRANCH,COIL:HEATING:WATER,1 ZONE PVAV MAIN HTG COIL,1 ZONE PVAV 2SPD DX CLG COIL OUTLET AIR NODE,1 ZONE PVAV MAIN HTG COIL OUTLET AIR NODE,Air Nodes
 Component Set,4,BRANCH,1 ZONE PVAV MAIN BRANCH,FAN:VARIABLEVOLUME,1 ZONE PVAV FAN,1 ZONE PVAV MAIN HTG COIL OUTLET AIR NODE,1 ZONE PVAV SUPPLY OUTLET NODE,Air Nodes
 Component Set,5,BRANCH,1 ZONE PVAV 1 MAIN BRANCH,AIRLOOPHVAC:OUTDOORAIRSYSTEM,1 ZONE PVAV 1 OA SYSTEM,1 ZONE PVAV 1 SUPPLY INLET NODE,1 ZONE PVAV 1 MIXED AIR NODE,Air Nodes
 Component Set,6,BRANCH,1 ZONE PVAV 1 MAIN BRANCH,COILSYSTEM:COOLING:DX,1 ZONE PVAV 1 2SPD DX CLG COIL 2587KBTU/HR 9.5EER COILSYSTEM,1 ZONE PVAV 1 MIXED AIR NODE,1 ZONE PVAV 1 2SPD DX CLG COIL OUTLET AIR NODE,Air Nodes
 Component Set,7,BRANCH,1 ZONE PVAV 1 MAIN BRANCH,COIL:HEATING:WATER,1 ZONE PVAV 1 MAIN HTG COIL,1 ZONE PVAV 1 2SPD DX CLG COIL OUTLET AIR NODE,1 ZONE PVAV 1 MAIN HTG COIL OUTLET AIR NODE,Air Nodes
 Component Set,8,BRANCH,1 ZONE PVAV 1 MAIN BRANCH,FAN:VARIABLEVOLUME,1 ZONE PVAV 1 FAN,1 ZONE PVAV 1 MAIN HTG COIL OUTLET AIR NODE,1 ZONE PVAV 1 SUPPLY OUTLET NODE,Air Nodes
 Component Set,9,BRANCH,1 ZONE PVAV 2 MAIN BRANCH,AIRLOOPHVAC:OUTDOORAIRSYSTEM,1 ZONE PVAV 2 OA SYSTEM,1 ZONE PVAV 2 SUPPLY INLET NODE,1 ZONE PVAV 2 MIXED AIR NODE,Air Nodes
 Component Set,10,BRANCH,1 ZONE PVAV 2 MAIN BRANCH,COILSYSTEM:COOLING:DX,1 ZONE PVAV 2 2SPD DX CLG COIL 2907KBTU/HR 9.5EER COILSYSTEM,1 ZONE PVAV 2 MIXED AIR NODE,1 ZONE PVAV 2 2SPD DX CLG COIL OUTLET AIR NODE,Air Nodes
 Component Set,11,BRANCH,1 ZONE PVAV 2 MAIN BRANCH,COIL:HEATING:WATER,1 ZONE PVAV 2 MAIN HTG COIL,1 ZONE PVAV 2 2SPD DX CLG COIL OUTLET AIR NODE,1 ZONE PVAV 2 MAIN HTG COIL OUTLET AIR NODE,Air Nodes
 Component Set,12,BRANCH,1 ZONE PVAV 2 MAIN BRANCH,FAN:VARIABLEVOLUME,1 ZONE PVAV 2 FAN,1 ZONE PVAV 2 MAIN HTG COIL OUTLET AIR NODE,1 ZONE PVAV 2 SUPPLY OUTLET NODE,Air Nodes
 Component Set,13,BRANCH,FULLSERVICERESTAURANT KITCHEN - 90.1-2013 SERVICE WATER BOOSTER LOOP SUPPLY INLET BRANCH,HEATEXCHANGER:FLUIDTOFLUID,HX FOR BOOSTER WATER HEATING,FULLSERVICERESTAURANT KITCHEN - 90.1-2013 SERVICE WATER BOOSTER LOOP SUPPLY INLET NODE,BOOSTER WATER LOOP PUMP INLET WATER NODE,Loop Supply Side Plant Nodes
 Component Set,14,BRANCH,FULLSERVICERESTAURANT KITCHEN - 90.1-2013 SERVICE WATER BOOSTER LOOP SUPPLY INLET BRANCH,PUMP:VARIABLESPEED,BOOSTER WATER LOOP PUMP,BOOSTER WATER LOOP PUMP INLET WATER NODE,BOOSTER WATER LOOP PUMP OUTLET WATER NODE,Water Nodes
 Component Set,15,BRANCH,FULLSERVICERESTAURANT KITCHEN - 90.1-2013 SERVICE WATER BOOSTER LOOP SUPPLY BRANCH 1,WATERHEATER:MIXED,6.0GAL ELECTRICITY BOOSTER WATER HEATER - 367KBTU/HR 1.0 THERM EFF,6.0GAL ELECTRICITY BOOSTER WATER HEATER - 367KBTU/HR SUPPLY INLET WATER NODE,6.0GAL ELECTRICITY BOOSTER WATER HEATER - 367KBTU/HR SUPPLY OUTLET WATER NODE,Use Side Water Nodes
 Component Set,16,BRANCH,FULLSERVICERESTAURANT KITCHEN - 90.1-2013 SERVICE WATER BOOSTER LOOP SUPPLY BRANCH 2,PIPE:ADIABATIC,PIPE ADIABATIC 5,PIPE ADIABATIC 5 INLET WATER NODE,PIPE ADIABATIC 5 OUTLET WATER NODE,Pipe Nodes
 Component Set,17,BRANCH,FULLSERVICERESTAURANT KITCHEN - 90.1-2013 SERVICE WATER BOOSTER LOOP SUPPLY OUTLET BRANCH,PIPE:ADIABATIC,PIPE ADIABATIC 7,PIPE ADIABATIC 7 INLET WATER NODE,FULLSERVICERESTAURANT KITCHEN - 90.1-2013 SERVICE WATER BOOSTER LOOP SUPPLY OUTLET NODE,Pipe Nodes
 Component Set,18,BRANCH,FULLSERVICERESTAURANT KITCHEN - 90.1-2013 SERVICE WATER BOOSTER LOOP DEMAND INLET BRANCH,PIPE:ADIABATIC,PIPE ADIABATIC 8,FULLSERVICERESTAURANT KITCHEN - 90.1-2013 SERVICE WATER BOOSTER LOOP DEMAND INLET NODE,PIPE ADIABATIC 8 OUTLET WATER NODE,Pipe Nodes
 Component Set,19,BRANCH,FULLSERVICERESTAURANT KITCHEN - 90.1-2013 SERVICE WATER BOOSTER LOOP DEMAND BRANCH 1,PIPE:ADIABATIC,PIPE ADIABATIC 6,PIPE ADIABATIC 6 INLET WATER NODE,PIPE ADIABATIC 6 OUTLET WATER NODE,Pipe Nodes
 Component Set,20,BRANCH,FULLSERVICERESTAURANT KITCHEN - 90.1-2013 SERVICE WATER BOOSTER LOOP DEMAND BRANCH 2,WATERUSE:CONNECTIONS,BOOSTER FULLSERVICERESTAURANT KITCHEN - 90.1-2013 WUC 30.37GPM AT 180F,BOOSTER FULLSERVICERESTAURANT KITCHEN - 90.1-2013 WUC 30.37GPM AT 180F INLET WATER NODE,BOOSTER FULLSERVICERESTAURANT KITCHEN - 90.1-2013 WUC 30.37GPM AT 180F OUTLET WATER NODE,DHW Nodes
 Component Set,21,BRANCH,FULLSERVICERESTAURANT KITCHEN - 90.1-2013 SERVICE WATER BOOSTER LOOP DEMAND BYPASS BRANCH,PIPE:ADIABATIC,FULLSERVICERESTAURANT KITCHEN - 90.1-2013 SERVICE WATER BOOSTER LOOP DEMAND BYPASS PIPE,FULLSERVICERESTAURANT KITCHEN - 90.1-2013 SERVICE WATER BOOSTER LOOP DEMAND BYPASS PIPE INLET NODE,FULLSERVICERESTAURANT KITCHEN - 90.1-2013 SERVICE WATER BOOSTER LOOP DEMAND BYPASS PIPE OUTLET NODE,Pipe Nodes
 Component Set,22,BRANCH,FULLSERVICERESTAURANT KITCHEN - 90.1-2013 SERVICE WATER BOOSTER LOOP DEMAND OUTLET BRANCH,PIPE:ADIABATIC,PIPE ADIABATIC 9,PIPE ADIABATIC 9 INLET WATER NODE,FULLSERVICERESTAURANT KITCHEN - 90.1-2013 SERVICE WATER BOOSTER LOOP DEMAND OUTLET NODE,Pipe Nodes
 Component Set,23,BRANCH,FULLSERVICERESTAURANT KITCHEN - 90.1-2013 SERVICE WATER LOOP SUPPLY INLET BRANCH,PUMP:VARIABLESPEED,FULLSERVICERESTAURANT KITCHEN - 90.1-2013 SERVICE WATER LOOP WATER MAINS PRESSURE DRIVEN,FULLSERVICERESTAURANT KITCHEN - 90.1-2013 SERVICE WATER LOOP SUPPLY INLET NODE,FULLSERVICERESTAURANT KITCHEN - 90.1-2013 SERVICE WATER LOOP WATER MAINS PRESSURE DRIVEN OUTLET WATER NODE,Water Nodes
 Component Set,24,BRANCH,FULLSERVICERESTAURANT KITCHEN - 90.1-2013 SERVICE WATER LOOP SUPPLY BRANCH 1,WATERHEATER:MIXED,1913GAL NATURALGAS WATER HEATER - 1913KBTU/HR 0.802 THERM EFF,1913GAL NATURALGAS WATER HEATER - 1913KBTU/HR SUPPLY INLET WATER NODE,1913GAL NATURALGAS WATER HEATER - 1913KBTU/HR SUPPLY OUTLET WATER NODE,Use Side Water Nodes
 Component Set,25,BRANCH,FULLSERVICERESTAURANT KITCHEN - 90.1-2013 SERVICE WATER LOOP SUPPLY BRANCH 2,PIPE:ADIABATIC,PIPE ADIABATIC 1,PIPE ADIABATIC 1 INLET WATER NODE,PIPE ADIABATIC 1 OUTLET WATER NODE,Pipe Nodes
 Component Set,26,BRANCH,FULLSERVICERESTAURANT KITCHEN - 90.1-2013 SERVICE WATER LOOP SUPPLY OUTLET BRANCH,PIPE:ADIABATIC,PIPE ADIABATIC 3,PIPE ADIABATIC 3 INLET WATER NODE,FULLSERVICERESTAURANT KITCHEN - 90.1-2013 SERVICE WATER LOOP SUPPLY OUTLET NODE,Pipe Nodes
 Component Set,27,BRANCH,FULLSERVICERESTAURANT KITCHEN - 90.1-2013 SERVICE WATER LOOP DEMAND INLET BRANCH,PIPE:INDOOR,FULLSERVICERESTAURANT KITCHEN - 90.1-2013 SERVICE WATER LOOP PIPE 20.0FT,FULLSERVICERESTAURANT KITCHEN - 90.1-2013 SERVICE WATER LOOP DEMAND INLET NODE,FULLSERVICERESTAURANT KITCHEN - 90.1-2013 SERVICE WATER LOOP PIPE 20.0FT OUTLET WATER NODE,Pipe Nodes
 Component Set,28,BRANCH,FULLSERVICERESTAURANT KITCHEN - 90.1-2013 SERVICE WATER LOOP DEMAND BRANCH 1,PIPE:ADIABATIC,PIPE ADIABATIC 2,PIPE ADIABATIC 2 INLET WATER NODE,PIPE ADIABATIC 2 OUTLET WATER NODE,Pipe Nodes
 Component Set,29,BRANCH,FULLSERVICERESTAURANT KITCHEN - 90.1-2013 SERVICE WATER LOOP DEMAND BRANCH 2,WATERUSE:CONNECTIONS,FULLSERVICERESTAURANT KITCHEN - 90.1-2013 WUC 20.25GPM AT 140F,FULLSERVICERESTAURANT KITCHEN - 90.1-2013 WUC 20.25GPM AT 140F INLET WATER NODE,FULLSERVICERESTAURANT KITCHEN - 90.1-2013 WUC 20.25GPM AT 140F OUTLET WATER NODE,DHW Nodes
 Component Set,30,BRANCH,FULLSERVICERESTAURANT KITCHEN - 90.1-2013 SERVICE WATER LOOP DEMAND BRANCH 3,HEATEXCHANGER:FLUIDTOFLUID,HX FOR BOOSTER WATER HEATING,HX FOR BOOSTER WATER HEATING DEMAND INLET WATER NODE,MAINS WATER MAKEUP FOR SWH BOOSTER INLET WATER NODE,Loop Demand Side Plant Nodes
 Component Set,31,BRANCH,FULLSERVICERESTAURANT KITCHEN - 90.1-2013 SERVICE WATER LOOP DEMAND BRANCH 3,PLANTCOMPONENT:TEMPERATURESOURCE,MAINS WATER MAKEUP FOR SWH BOOSTER,MAINS WATER MAKEUP FOR SWH BOOSTER INLET WATER NODE,MAINS WATER MAKEUP FOR SWH BOOSTER OUTLET WATER NODE,Chilled Water Nodes
 Component Set,32,BRANCH,FULLSERVICERESTAURANT KITCHEN - 90.1-2013 SERVICE WATER LOOP DEMAND BYPASS BRANCH,PIPE:ADIABATIC,FULLSERVICERESTAURANT KITCHEN - 90.1-2013 SERVICE WATER LOOP DEMAND BYPASS PIPE,FULLSERVICERESTAURANT KITCHEN - 90.1-2013 SERVICE WATER LOOP DEMAND BYPASS PIPE INLET NODE,FULLSERVICERESTAURANT KITCHEN - 90.1-2013 SERVICE WATER LOOP DEMAND BYPASS PIPE OUTLET NODE,Pipe Nodes
 Component Set,33,BRANCH,FULLSERVICERESTAURANT KITCHEN - 90.1-2013 SERVICE WATER LOOP DEMAND OUTLET BRANCH,PIPE:ADIABATIC,PIPE ADIABATIC 4,PIPE ADIABATIC 4 INLET WATER NODE,FULLSERVICERESTAURANT KITCHEN - 90.1-2013 SERVICE WATER LOOP DEMAND OUTLET NODE,Pipe Nodes
 Component Set,34,BRANCH,HOT WATER LOOP SUPPLY INLET BRANCH,PUMP:VARIABLESPEED,HOT WATER LOOP PUMP,HOT WATER LOOP SUPPLY INLET NODE,HOT WATER LOOP PUMP OUTLET WATER NODE,Water Nodes
 Component Set,35,BRANCH,HOT WATER LOOP SUPPLY BRANCH 1,BOILER:HOTWATER,BOILER 5275KBTU/HR 0.8 THERMAL EFF,BOILER INLET WATER NODE,BOILER OUTLET WATER NODE,Hot Water Nodes
 Component Set,36,BRANCH,HOT WATER LOOP SUPPLY BRANCH 2,PIPE:ADIABATIC,HOT WATER LOOP SUPPLY EQUIPMENT BYPASS,HOT WATER LOOP SUPPLY EQUIPMENT BYPASS INLET WATER NODE,HOT WATER LOOP SUPPLY EQUIPMENT BYPASS OUTLET WATER NODE,Pipe Nodes
 Component Set,37,BRANCH,HOT WATER LOOP SUPPLY OUTLET BRANCH,PIPE:ADIABATIC,HOT WATER LOOP SUPPLY OUTLET,HOT WATER LOOP SUPPLY OUTLET INLET WATER NODE,HOT WATER LOOP SUPPLY OUTLET NODE,Pipe Nodes
 Component Set,38,BRANCH,HOT WATER LOOP DEMAND INLET BRANCH,PIPE:ADIABATIC,HOT WATER LOOP DEMAND INLET,HOT WATER LOOP DEMAND INLET NODE,HOT WATER LOOP DEMAND INLET OUTLET WATER NODE,Pipe Nodes
 Component Set,39,BRANCH,HOT WATER LOOP DEMAND BRANCH 1,PIPE:ADIABATIC,HOT WATER LOOP COIL BYPASS,HOT WATER LOOP COIL BYPASS INLET WATER NODE,HOT WATER LOOP COIL BYPASS OUTLET WATER NODE,Pipe Nodes
 Component Set,40,BRANCH,HOT WATER LOOP DEMAND BRANCH 2,COIL:HEATING:WATER,1 ZONE PVAV MAIN HTG COIL,1 ZONE PVAV MAIN HTG COIL INLET WATER NODE,1 ZONE PVAV MAIN HTG COIL OUTLET WATER NODE,Water Nodes
 Component Set,41,BRANCH,HOT WATER LOOP DEMAND BRANCH 3,COIL:HEATING:WATER,BUILDING STORY 1 THERMALZONE REHEAT COIL,BUILDING STORY 1 THERMALZONE REHEAT COIL INLET WATER NODE,BUILDING STORY 1 THERMALZONE REHEAT COIL OUTLET WATER NODE,Water Nodes
 Component Set,42,BRANCH,HOT WATER LOOP DEMAND BRANCH 4,COIL:HEATING:WATER,1 ZONE PVAV 1 MAIN HTG COIL,1 ZONE PVAV 1 MAIN HTG COIL INLET WATER NODE,1 ZONE PVAV 1 MAIN HTG COIL OUTLET WATER NODE,Water Nodes
 Component Set,43,BRANCH,HOT WATER LOOP DEMAND BRANCH 5,COIL:HEATING:WATER,BUILDING STORY 2 THERMALZONE REHEAT COIL,BUILDING STORY 2 THERMALZONE REHEAT COIL INLET WATER NODE,BUILDING STORY 2 THERMALZONE REHEAT COIL OUTLET WATER NODE,Water Nodes
 Component Set,44,BRANCH,HOT WATER LOOP DEMAND BRANCH 6,COIL:HEATING:WATER,1 ZONE PVAV 2 MAIN HTG COIL,1 ZONE PVAV 2 MAIN HTG COIL INLET WATER NODE,1 ZONE PVAV 2 MAIN HTG COIL OUTLET WATER NODE,Water Nodes
 Component Set,45,BRANCH,HOT WATER LOOP DEMAND BRANCH 7,COIL:HEATING:WATER,BUILDING STORY 3 THERMALZONE REHEAT COIL,BUILDING STORY 3 THERMALZONE REHEAT COIL INLET WATER NODE,BUILDING STORY 3 THERMALZONE REHEAT COIL OUTLET WATER NODE,Water Nodes
 Component Set,46,BRANCH,HOT WATER LOOP DEMAND BYPASS BRANCH,PIPE:ADIABATIC,HOT WATER LOOP DEMAND BYPASS PIPE,HOT WATER LOOP DEMAND BYPASS PIPE INLET NODE,HOT WATER LOOP DEMAND BYPASS PIPE OUTLET NODE,Pipe Nodes
 Component Set,47,BRANCH,HOT WATER LOOP DEMAND OUTLET BRANCH,PIPE:ADIABATIC,HOT WATER LOOP DEMAND OUTLET,HOT WATER LOOP DEMAND OUTLET INLET WATER NODE,HOT WATER LOOP DEMAND OUTLET NODE,Pipe Nodes
 Component Set,48,ZONEHVAC:AIRDISTRIBUTIONUNIT,ADU BUILDING STORY 1 THERMALZONE VAV TERMINAL,AIRTERMINAL:SINGLEDUCT:VAV:REHEAT,BUILDING STORY 1 THERMALZONE VAV TERMINAL,BUILDING STORY 1 THERMALZONE VAV TERMINAL INLET AIR NODE,BUILDING STORY 1 THERMALZONE VAV TERMINAL OUTLET AIR NODE,Air Nodes
 Component Set,49,ZONEHVAC:AIRDISTRIBUTIONUNIT,ADU BUILDING STORY 2 THERMALZONE VAV TERMINAL,AIRTERMINAL:SINGLEDUCT:VAV:REHEAT,BUILDING STORY 2 THERMALZONE VAV TERMINAL,BUILDING STORY 2 THERMALZONE VAV TERMINAL INLET AIR NODE,BUILDING STORY 2 THERMALZONE VAV TERMINAL OUTLET AIR NODE,Air Nodes
 Component Set,50,ZONEHVAC:AIRDISTRIBUTIONUNIT,ADU BUILDING STORY 3 THERMALZONE VAV TERMINAL,AIRTERMINAL:SINGLEDUCT:VAV:REHEAT,BUILDING STORY 3 THERMALZONE VAV TERMINAL,BUILDING STORY 3 THERMALZONE VAV TERMINAL INLET AIR NODE,BUILDING STORY 3 THERMALZONE VAV TERMINAL OUTLET AIR NODE,Air Nodes
 Component Set,51,AIRTERMINAL:SINGLEDUCT:VAV:REHEAT,BUILDING STORY 1 THERMALZONE VAV TERMINAL,COIL:HEATING:WATER,BUILDING STORY 1 THERMALZONE REHEAT COIL,BUILDING STORY 1 THERMALZONE VAV TERMINAL DAMPER OUTLET,BUILDING STORY 1 THERMALZONE VAV TERMINAL OUTLET AIR NODE,Air Nodes
 Component Set,52,AIRTERMINAL:SINGLEDUCT:VAV:REHEAT,BUILDING STORY 2 THERMALZONE VAV TERMINAL,COIL:HEATING:WATER,BUILDING STORY 2 THERMALZONE REHEAT COIL,BUILDING STORY 2 THERMALZONE VAV TERMINAL DAMPER OUTLET,BUILDING STORY 2 THERMALZONE VAV TERMINAL OUTLET AIR NODE,Air Nodes
 Component Set,53,AIRTERMINAL:SINGLEDUCT:VAV:REHEAT,BUILDING STORY 3 THERMALZONE VAV TERMINAL,COIL:HEATING:WATER,BUILDING STORY 3 THERMALZONE REHEAT COIL,BUILDING STORY 3 THERMALZONE VAV TERMINAL DAMPER OUTLET,BUILDING STORY 3 THERMALZONE VAV TERMINAL OUTLET AIR NODE,Air Nodes
 Component Set,54,AIRLOOPHVAC:OUTDOORAIRSYSTEM,1 ZONE PVAV OA SYSTEM,OUTDOORAIR:MIXER,1 ZONE PVAV OA SYSTEM OUTDOOR AIR MIXER,1 ZONE PVAV OUTDOOR AIR NODE,1 ZONE PVAV MIXED AIR NODE,Air Nodes
 Component Set,55,AIRLOOPHVAC:OUTDOORAIRSYSTEM,1 ZONE PVAV 1 OA SYSTEM,OUTDOORAIR:MIXER,1 ZONE PVAV 1 OA SYSTEM OUTDOOR AIR MIXER,1 ZONE PVAV 1 OUTDOOR AIR NODE,1 ZONE PVAV 1 MIXED AIR NODE,Air Nodes
 Component Set,56,AIRLOOPHVAC:OUTDOORAIRSYSTEM,1 ZONE PVAV 2 OA SYSTEM,OUTDOORAIR:MIXER,1 ZONE PVAV 2 OA SYSTEM OUTDOOR AIR MIXER,1 ZONE PVAV 2 OUTDOOR AIR NODE,1 ZONE PVAV 2 MIXED AIR NODE,Air Nodes
 Component Set,57,COILSYSTEM:COOLING:DX,1 ZONE PVAV 2SPD DX CLG COIL 2147KBTU/HR 9.5EER COILSYSTEM,COIL:COOLING:DX:TWOSPEED,1 ZONE PVAV 2SPD DX CLG COIL 2147KBTU/HR 9.5EER,1 ZONE PVAV MIXED AIR NODE,1 ZONE PVAV 2SPD DX CLG COIL OUTLET AIR NODE,Air Nodes
 Component Set,58,COILSYSTEM:COOLING:DX,1 ZONE PVAV 1 2SPD DX CLG COIL 2587KBTU/HR 9.5EER COILSYSTEM,COIL:COOLING:DX:TWOSPEED,1 ZONE PVAV 1 2SPD DX CLG COIL 2587KBTU/HR 9.5EER,1 ZONE PVAV 1 MIXED AIR NODE,1 ZONE PVAV 1 2SPD DX CLG COIL OUTLET AIR NODE,Air Nodes
 Component Set,59,COILSYSTEM:COOLING:DX,1 ZONE PVAV 2 2SPD DX CLG COIL 2907KBTU/HR 9.5EER COILSYSTEM,COIL:COOLING:DX:TWOSPEED,1 ZONE PVAV 2 2SPD DX CLG COIL 2907KBTU/HR 9.5EER,1 ZONE PVAV 2 MIXED AIR NODE,1 ZONE PVAV 2 2SPD DX CLG COIL OUTLET AIR NODE,Air Nodes
! ===============================================================
! <# Plant Loops>,<Number of Plant Loops>
 #Plant Loops,3
! <Plant Loop>,<Plant Loop Name>,<Loop Type>,<Inlet Node Name>,<Outlet Node Name>,<Branch List>,<Connector List>
! <Plant Loop Connector>,<Connector Type>,<Connector Name>,<Loop Name>,<Loop Type>,<Number of Inlets/Outlets>
! <Plant Loop Connector Branches>,<Connector Node Count>,<Connector Type>,<Connector Name>,<Inlet Branch>,<Outlet Branch>,<Loop Name>,<Loop Type>
! <Plant Loop Connector Nodes>,<Connector Node Count>,<Connector Type>,<Connector Name>,<Inlet Node>,<Outlet Node>,<Loop Name>,<Loop Type>
! <Plant Loop Supply Connection>,<Plant Loop Name>,<Supply Side Outlet Node Name>,<Demand Side Inlet Node Name>
! <Plant Loop Return Connection>,<Plant Loop Name>,<Demand Side Outlet Node Name>,<Supply Side Inlet Node Name>
 Plant Loop,FULLSERVICERESTAURANT KITCHEN - 90.1-2013 SERVICE WATER BOOSTER LOOP,Demand,FULLSERVICERESTAURANT KITCHEN - 90.1-2013 SERVICE WATER BOOSTER LOOP DEMAND INLET NODE,FULLSERVICERESTAURANT KITCHEN - 90.1-2013 SERVICE WATER BOOSTER LOOP DEMAND OUTLET NODE,FULLSERVICERESTAURANT KITCHEN - 90.1-2013 SERVICE WATER BOOSTER LOOP DEMAND BRANCHES,FULLSERVICERESTAURANT KITCHEN - 90.1-2013 SERVICE WATER BOOSTER LOOP DEMAND CONNECTOR LIST
   Plant Loop Connector,Splitter,FULLSERVICERESTAURANT KITCHEN - 90.1-2013 SERVICE WATER BOOSTER LOOP DEMAND SPLITTER,FULLSERVICERESTAURANT KITCHEN - 90.1-2013 SERVICE WATER BOOSTER LOOP,Demand,3
     Plant Loop Connector Branches,1,Splitter,FULLSERVICERESTAURANT KITCHEN - 90.1-2013 SERVICE WATER BOOSTER LOOP DEMAND SPLITTER,FULLSERVICERESTAURANT KITCHEN - 90.1-2013 SERVICE WATER BOOSTER LOOP DEMAND INLET BRANCH,FULLSERVICERESTAURANT KITCHEN - 90.1-2013 SERVICE WATER BOOSTER LOOP DEMAND BRANCH 1,FULLSERVICERESTAURANT KITCHEN - 90.1-2013 SERVICE WATER BOOSTER LOOP,Demand
     Plant Loop Connector Nodes,   1,Splitter,FULLSERVICERESTAURANT KITCHEN - 90.1-2013 SERVICE WATER BOOSTER LOOP DEMAND SPLITTER,PIPE ADIABATIC 8 OUTLET WATER NODE,PIPE ADIABATIC 6 INLET WATER NODE,FULLSERVICERESTAURANT KITCHEN - 90.1-2013 SERVICE WATER BOOSTER LOOP,Demand
     Plant Loop Connector Branches,2,Splitter,FULLSERVICERESTAURANT KITCHEN - 90.1-2013 SERVICE WATER BOOSTER LOOP DEMAND SPLITTER,FULLSERVICERESTAURANT KITCHEN - 90.1-2013 SERVICE WATER BOOSTER LOOP DEMAND INLET BRANCH,FULLSERVICERESTAURANT KITCHEN - 90.1-2013 SERVICE WATER BOOSTER LOOP DEMAND BRANCH 2,FULLSERVICERESTAURANT KITCHEN - 90.1-2013 SERVICE WATER BOOSTER LOOP,Demand
     Plant Loop Connector Nodes,   2,Splitter,FULLSERVICERESTAURANT KITCHEN - 90.1-2013 SERVICE WATER BOOSTER LOOP DEMAND SPLITTER,PIPE ADIABATIC 8 OUTLET WATER NODE,BOOSTER FULLSERVICERESTAURANT KITCHEN - 90.1-2013 WUC 30.37GPM AT 180F INLET WATER NODE,FULLSERVICERESTAURANT KITCHEN - 90.1-2013 SERVICE WATER BOOSTER LOOP,Demand
     Plant Loop Connector Branches,3,Splitter,FULLSERVICERESTAURANT KITCHEN - 90.1-2013 SERVICE WATER BOOSTER LOOP DEMAND SPLITTER,FULLSERVICERESTAURANT KITCHEN - 90.1-2013 SERVICE WATER BOOSTER LOOP DEMAND INLET BRANCH,FULLSERVICERESTAURANT KITCHEN - 90.1-2013 SERVICE WATER BOOSTER LOOP DEMAND BYPASS BRANCH,FULLSERVICERESTAURANT KITCHEN - 90.1-2013 SERVICE WATER BOOSTER LOOP,Demand
     Plant Loop Connector Nodes,   3,Splitter,FULLSERVICERESTAURANT KITCHEN - 90.1-2013 SERVICE WATER BOOSTER LOOP DEMAND SPLITTER,PIPE ADIABATIC 8 OUTLET WATER NODE,FULLSERVICERESTAURANT KITCHEN - 90.1-2013 SERVICE WATER BOOSTER LOOP DEMAND BYPASS PIPE INLET NODE,FULLSERVICERESTAURANT KITCHEN - 90.1-2013 SERVICE WATER BOOSTER LOOP,Demand
   Plant Loop Connector,Mixer,FULLSERVICERESTAURANT KITCHEN - 90.1-2013 SERVICE WATER BOOSTER LOOP DEMAND MIXER,FULLSERVICERESTAURANT KITCHEN - 90.1-2013 SERVICE WATER BOOSTER LOOP,Demand,3
     Plant Loop Connector Branches,1,Mixer,FULLSERVICERESTAURANT KITCHEN - 90.1-2013 SERVICE WATER BOOSTER LOOP DEMAND MIXER,FULLSERVICERESTAURANT KITCHEN - 90.1-2013 SERVICE WATER BOOSTER LOOP DEMAND BRANCH 1,FULLSERVICERESTAURANT KITCHEN - 90.1-2013 SERVICE WATER BOOSTER LOOP DEMAND OUTLET BRANCH,FULLSERVICERESTAURANT KITCHEN - 90.1-2013 SERVICE WATER BOOSTER LOOP,Demand
     Plant Loop Connector Nodes,   1,Mixer,FULLSERVICERESTAURANT KITCHEN - 90.1-2013 SERVICE WATER BOOSTER LOOP DEMAND MIXER,PIPE ADIABATIC 6 OUTLET WATER NODE,PIPE ADIABATIC 9 INLET WATER NODE,FULLSERVICERESTAURANT KITCHEN - 90.1-2013 SERVICE WATER BOOSTER LOOP,Demand
     Plant Loop Connector Branches,2,Mixer,FULLSERVICERESTAURANT KITCHEN - 90.1-2013 SERVICE WATER BOOSTER LOOP DEMAND MIXER,FULLSERVICERESTAURANT KITCHEN - 90.1-2013 SERVICE WATER BOOSTER LOOP DEMAND BRANCH 2,FULLSERVICERESTAURANT KITCHEN - 90.1-2013 SERVICE WATER BOOSTER LOOP DEMAND OUTLET BRANCH,FULLSERVICERESTAURANT KITCHEN - 90.1-2013 SERVICE WATER BOOSTER LOOP,Demand
     Plant Loop Connector Nodes,   2,Mixer,FULLSERVICERESTAURANT KITCHEN - 90.1-2013 SERVICE WATER BOOSTER LOOP DEMAND MIXER,BOOSTER FULLSERVICERESTAURANT KITCHEN - 90.1-2013 WUC 30.37GPM AT 180F OUTLET WATER NODE,PIPE ADIABATIC 9 INLET WATER NODE,FULLSERVICERESTAURANT KITCHEN - 90.1-2013 SERVICE WATER BOOSTER LOOP,Demand
     Plant Loop Connector Branches,3,Mixer,FULLSERVICERESTAURANT KITCHEN - 90.1-2013 SERVICE WATER BOOSTER LOOP DEMAND MIXER,FULLSERVICERESTAURANT KITCHEN - 90.1-2013 SERVICE WATER BOOSTER LOOP DEMAND BYPASS BRANCH,FULLSERVICERESTAURANT KITCHEN - 90.1-2013 SERVICE WATER BOOSTER LOOP DEMAND OUTLET BRANCH,FULLSERVICERESTAURANT KITCHEN - 90.1-2013 SERVICE WATER BOOSTER LOOP,Demand
     Plant Loop Connector Nodes,   3,Mixer,FULLSERVICERESTAURANT KITCHEN - 90.1-2013 SERVICE WATER BOOSTER LOOP DEMAND MIXER,FULLSERVICERESTAURANT KITCHEN - 90.1-2013 SERVICE WATER BOOSTER LOOP DEMAND BYPASS PIPE OUTLET NODE,PIPE ADIABATIC 9 INLET WATER NODE,FULLSERVICERESTAURANT KITCHEN - 90.1-2013 SERVICE WATER BOOSTER LOOP,Demand
 Plant Loop,FULLSERVICERESTAURANT KITCHEN - 90.1-2013 SERVICE WATER BOOSTER LOOP,Supply,FULLSERVICERESTAURANT KITCHEN - 90.1-2013 SERVICE WATER BOOSTER LOOP SUPPLY INLET NODE,FULLSERVICERESTAURANT KITCHEN - 90.1-2013 SERVICE WATER BOOSTER LOOP SUPPLY OUTLET NODE,FULLSERVICERESTAURANT KITCHEN - 90.1-2013 SERVICE WATER BOOSTER LOOP SUPPLY BRANCHES,FULLSERVICERESTAURANT KITCHEN - 90.1-2013 SERVICE WATER BOOSTER LOOP SUPPLY CONNECTOR LIST
   Plant Loop Connector,Splitter,FULLSERVICERESTAURANT KITCHEN - 90.1-2013 SERVICE WATER BOOSTER LOOP SUPPLY SPLITTER,FULLSERVICERESTAURANT KITCHEN - 90.1-2013 SERVICE WATER BOOSTER LOOP,Supply,2
     Plant Loop Connector Branches,1,Splitter,FULLSERVICERESTAURANT KITCHEN - 90.1-2013 SERVICE WATER BOOSTER LOOP SUPPLY SPLITTER,FULLSERVICERESTAURANT KITCHEN - 90.1-2013 SERVICE WATER BOOSTER LOOP SUPPLY INLET BRANCH,FULLSERVICERESTAURANT KITCHEN - 90.1-2013 SERVICE WATER BOOSTER LOOP SUPPLY BRANCH 1,FULLSERVICERESTAURANT KITCHEN - 90.1-2013 SERVICE WATER BOOSTER LOOP,Supply
     Plant Loop Connector Nodes,   1,Splitter,FULLSERVICERESTAURANT KITCHEN - 90.1-2013 SERVICE WATER BOOSTER LOOP SUPPLY SPLITTER,BOOSTER WATER LOOP PUMP OUTLET WATER NODE,6.0GAL ELECTRICITY BOOSTER WATER HEATER - 367KBTU/HR SUPPLY INLET WATER NODE,FULLSERVICERESTAURANT KITCHEN - 90.1-2013 SERVICE WATER BOOSTER LOOP,Supply
     Plant Loop Connector Branches,2,Splitter,FULLSERVICERESTAURANT KITCHEN - 90.1-2013 SERVICE WATER BOOSTER LOOP SUPPLY SPLITTER,FULLSERVICERESTAURANT KITCHEN - 90.1-2013 SERVICE WATER BOOSTER LOOP SUPPLY INLET BRANCH,FULLSERVICERESTAURANT KITCHEN - 90.1-2013 SERVICE WATER BOOSTER LOOP SUPPLY BRANCH 2,FULLSERVICERESTAURANT KITCHEN - 90.1-2013 SERVICE WATER BOOSTER LOOP,Supply
     Plant Loop Connector Nodes,   2,Splitter,FULLSERVICERESTAURANT KITCHEN - 90.1-2013 SERVICE WATER BOOSTER LOOP SUPPLY SPLITTER,BOOSTER WATER LOOP PUMP OUTLET WATER NODE,PIPE ADIABATIC 5 INLET WATER NODE,FULLSERVICERESTAURANT KITCHEN - 90.1-2013 SERVICE WATER BOOSTER LOOP,Supply
   Plant Loop Connector,Mixer,FULLSERVICERESTAURANT KITCHEN - 90.1-2013 SERVICE WATER BOOSTER LOOP SUPPLY MIXER,FULLSERVICERESTAURANT KITCHEN - 90.1-2013 SERVICE WATER BOOSTER LOOP,Supply,2
     Plant Loop Connector Branches,1,Mixer,FULLSERVICERESTAURANT KITCHEN - 90.1-2013 SERVICE WATER BOOSTER LOOP SUPPLY MIXER,FULLSERVICERESTAURANT KITCHEN - 90.1-2013 SERVICE WATER BOOSTER LOOP SUPPLY BRANCH 1,FULLSERVICERESTAURANT KITCHEN - 90.1-2013 SERVICE WATER BOOSTER LOOP SUPPLY OUTLET BRANCH,FULLSERVICERESTAURANT KITCHEN - 90.1-2013 SERVICE WATER BOOSTER LOOP,Supply
     Plant Loop Connector Nodes,   1,Mixer,FULLSERVICERESTAURANT KITCHEN - 90.1-2013 SERVICE WATER BOOSTER LOOP SUPPLY MIXER,6.0GAL ELECTRICITY BOOSTER WATER HEATER - 367KBTU/HR SUPPLY OUTLET WATER NODE,PIPE ADIABATIC 7 INLET WATER NODE,FULLSERVICERESTAURANT KITCHEN - 90.1-2013 SERVICE WATER BOOSTER LOOP,Supply
     Plant Loop Connector Branches,2,Mixer,FULLSERVICERESTAURANT KITCHEN - 90.1-2013 SERVICE WATER BOOSTER LOOP SUPPLY MIXER,FULLSERVICERESTAURANT KITCHEN - 90.1-2013 SERVICE WATER BOOSTER LOOP SUPPLY BRANCH 2,FULLSERVICERESTAURANT KITCHEN - 90.1-2013 SERVICE WATER BOOSTER LOOP SUPPLY OUTLET BRANCH,FULLSERVICERESTAURANT KITCHEN - 90.1-2013 SERVICE WATER BOOSTER LOOP,Supply
     Plant Loop Connector Nodes,   2,Mixer,FULLSERVICERESTAURANT KITCHEN - 90.1-2013 SERVICE WATER BOOSTER LOOP SUPPLY MIXER,PIPE ADIABATIC 5 OUTLET WATER NODE,PIPE ADIABATIC 7 INLET WATER NODE,FULLSERVICERESTAURANT KITCHEN - 90.1-2013 SERVICE WATER BOOSTER LOOP,Supply
 Plant Loop Supply Connection,FULLSERVICERESTAURANT KITCHEN - 90.1-2013 SERVICE WATER BOOSTER LOOP,FULLSERVICERESTAURANT KITCHEN - 90.1-2013 SERVICE WATER BOOSTER LOOP SUPPLY OUTLET NODE,FULLSERVICERESTAURANT KITCHEN - 90.1-2013 SERVICE WATER BOOSTER LOOP DEMAND INLET NODE
 Plant Loop Return Connection,FULLSERVICERESTAURANT KITCHEN - 90.1-2013 SERVICE WATER BOOSTER LOOP,FULLSERVICERESTAURANT KITCHEN - 90.1-2013 SERVICE WATER BOOSTER LOOP DEMAND OUTLET NODE,FULLSERVICERESTAURANT KITCHEN - 90.1-2013 SERVICE WATER BOOSTER LOOP SUPPLY INLET NODE
 Plant Loop,FULLSERVICERESTAURANT KITCHEN - 90.1-2013 SERVICE WATER LOOP,Demand,FULLSERVICERESTAURANT KITCHEN - 90.1-2013 SERVICE WATER LOOP DEMAND INLET NODE,FULLSERVICERESTAURANT KITCHEN - 90.1-2013 SERVICE WATER LOOP DEMAND OUTLET NODE,FULLSERVICERESTAURANT KITCHEN - 90.1-2013 SERVICE WATER LOOP DEMAND BRANCHES,FULLSERVICERESTAURANT KITCHEN - 90.1-2013 SERVICE WATER LOOP DEMAND CONNECTOR LIST
   Plant Loop Connector,Splitter,FULLSERVICERESTAURANT KITCHEN - 90.1-2013 SERVICE WATER LOOP DEMAND SPLITTER,FULLSERVICERESTAURANT KITCHEN - 90.1-2013 SERVICE WATER LOOP,Demand,4
     Plant Loop Connector Branches,1,Splitter,FULLSERVICERESTAURANT KITCHEN - 90.1-2013 SERVICE WATER LOOP DEMAND SPLITTER,FULLSERVICERESTAURANT KITCHEN - 90.1-2013 SERVICE WATER LOOP DEMAND INLET BRANCH,FULLSERVICERESTAURANT KITCHEN - 90.1-2013 SERVICE WATER LOOP DEMAND BRANCH 1,FULLSERVICERESTAURANT KITCHEN - 90.1-2013 SERVICE WATER LOOP,Demand
     Plant Loop Connector Nodes,   1,Splitter,FULLSERVICERESTAURANT KITCHEN - 90.1-2013 SERVICE WATER LOOP DEMAND SPLITTER,FULLSERVICERESTAURANT KITCHEN - 90.1-2013 SERVICE WATER LOOP PIPE 20.0FT OUTLET WATER NODE,PIPE ADIABATIC 2 INLET WATER NODE,FULLSERVICERESTAURANT KITCHEN - 90.1-2013 SERVICE WATER LOOP,Demand
     Plant Loop Connector Branches,2,Splitter,FULLSERVICERESTAURANT KITCHEN - 90.1-2013 SERVICE WATER LOOP DEMAND SPLITTER,FULLSERVICERESTAURANT KITCHEN - 90.1-2013 SERVICE WATER LOOP DEMAND INLET BRANCH,FULLSERVICERESTAURANT KITCHEN - 90.1-2013 SERVICE WATER LOOP DEMAND BRANCH 2,FULLSERVICERESTAURANT KITCHEN - 90.1-2013 SERVICE WATER LOOP,Demand
     Plant Loop Connector Nodes,   2,Splitter,FULLSERVICERESTAURANT KITCHEN - 90.1-2013 SERVICE WATER LOOP DEMAND SPLITTER,FULLSERVICERESTAURANT KITCHEN - 90.1-2013 SERVICE WATER LOOP PIPE 20.0FT OUTLET WATER NODE,FULLSERVICERESTAURANT KITCHEN - 90.1-2013 WUC 20.25GPM AT 140F INLET WATER NODE,FULLSERVICERESTAURANT KITCHEN - 90.1-2013 SERVICE WATER LOOP,Demand
     Plant Loop Connector Branches,3,Splitter,FULLSERVICERESTAURANT KITCHEN - 90.1-2013 SERVICE WATER LOOP DEMAND SPLITTER,FULLSERVICERESTAURANT KITCHEN - 90.1-2013 SERVICE WATER LOOP DEMAND INLET BRANCH,FULLSERVICERESTAURANT KITCHEN - 90.1-2013 SERVICE WATER LOOP DEMAND BRANCH 3,FULLSERVICERESTAURANT KITCHEN - 90.1-2013 SERVICE WATER LOOP,Demand
     Plant Loop Connector Nodes,   3,Splitter,FULLSERVICERESTAURANT KITCHEN - 90.1-2013 SERVICE WATER LOOP DEMAND SPLITTER,FULLSERVICERESTAURANT KITCHEN - 90.1-2013 SERVICE WATER LOOP PIPE 20.0FT OUTLET WATER NODE,HX FOR BOOSTER WATER HEATING DEMAND INLET WATER NODE,FULLSERVICERESTAURANT KITCHEN - 90.1-2013 SERVICE WATER LOOP,Demand
     Plant Loop Connector Branches,4,Splitter,FULLSERVICERESTAURANT KITCHEN - 90.1-2013 SERVICE WATER LOOP DEMAND SPLITTER,FULLSERVICERESTAURANT KITCHEN - 90.1-2013 SERVICE WATER LOOP DEMAND INLET BRANCH,FULLSERVICERESTAURANT KITCHEN - 90.1-2013 SERVICE WATER LOOP DEMAND BYPASS BRANCH,FULLSERVICERESTAURANT KITCHEN - 90.1-2013 SERVICE WATER LOOP,Demand
     Plant Loop Connector Nodes,   4,Splitter,FULLSERVICERESTAURANT KITCHEN - 90.1-2013 SERVICE WATER LOOP DEMAND SPLITTER,FULLSERVICERESTAURANT KITCHEN - 90.1-2013 SERVICE WATER LOOP PIPE 20.0FT OUTLET WATER NODE,FULLSERVICERESTAURANT KITCHEN - 90.1-2013 SERVICE WATER LOOP DEMAND BYPASS PIPE INLET NODE,FULLSERVICERESTAURANT KITCHEN - 90.1-2013 SERVICE WATER LOOP,Demand
   Plant Loop Connector,Mixer,FULLSERVICERESTAURANT KITCHEN - 90.1-2013 SERVICE WATER LOOP DEMAND MIXER,FULLSERVICERESTAURANT KITCHEN - 90.1-2013 SERVICE WATER LOOP,Demand,4
     Plant Loop Connector Branches,1,Mixer,FULLSERVICERESTAURANT KITCHEN - 90.1-2013 SERVICE WATER LOOP DEMAND MIXER,FULLSERVICERESTAURANT KITCHEN - 90.1-2013 SERVICE WATER LOOP DEMAND BRANCH 1,FULLSERVICERESTAURANT KITCHEN - 90.1-2013 SERVICE WATER LOOP DEMAND OUTLET BRANCH,FULLSERVICERESTAURANT KITCHEN - 90.1-2013 SERVICE WATER LOOP,Demand
     Plant Loop Connector Nodes,   1,Mixer,FULLSERVICERESTAURANT KITCHEN - 90.1-2013 SERVICE WATER LOOP DEMAND MIXER,PIPE ADIABATIC 2 OUTLET WATER NODE,PIPE ADIABATIC 4 INLET WATER NODE,FULLSERVICERESTAURANT KITCHEN - 90.1-2013 SERVICE WATER LOOP,Demand
     Plant Loop Connector Branches,2,Mixer,FULLSERVICERESTAURANT KITCHEN - 90.1-2013 SERVICE WATER LOOP DEMAND MIXER,FULLSERVICERESTAURANT KITCHEN - 90.1-2013 SERVICE WATER LOOP DEMAND BRANCH 2,FULLSERVICERESTAURANT KITCHEN - 90.1-2013 SERVICE WATER LOOP DEMAND OUTLET BRANCH,FULLSERVICERESTAURANT KITCHEN - 90.1-2013 SERVICE WATER LOOP,Demand
     Plant Loop Connector Nodes,   2,Mixer,FULLSERVICERESTAURANT KITCHEN - 90.1-2013 SERVICE WATER LOOP DEMAND MIXER,FULLSERVICERESTAURANT KITCHEN - 90.1-2013 WUC 20.25GPM AT 140F OUTLET WATER NODE,PIPE ADIABATIC 4 INLET WATER NODE,FULLSERVICERESTAURANT KITCHEN - 90.1-2013 SERVICE WATER LOOP,Demand
     Plant Loop Connector Branches,3,Mixer,FULLSERVICERESTAURANT KITCHEN - 90.1-2013 SERVICE WATER LOOP DEMAND MIXER,FULLSERVICERESTAURANT KITCHEN - 90.1-2013 SERVICE WATER LOOP DEMAND BRANCH 3,FULLSERVICERESTAURANT KITCHEN - 90.1-2013 SERVICE WATER LOOP DEMAND OUTLET BRANCH,FULLSERVICERESTAURANT KITCHEN - 90.1-2013 SERVICE WATER LOOP,Demand
     Plant Loop Connector Nodes,   3,Mixer,FULLSERVICERESTAURANT KITCHEN - 90.1-2013 SERVICE WATER LOOP DEMAND MIXER,MAINS WATER MAKEUP FOR SWH BOOSTER OUTLET WATER NODE,PIPE ADIABATIC 4 INLET WATER NODE,FULLSERVICERESTAURANT KITCHEN - 90.1-2013 SERVICE WATER LOOP,Demand
     Plant Loop Connector Branches,4,Mixer,FULLSERVICERESTAURANT KITCHEN - 90.1-2013 SERVICE WATER LOOP DEMAND MIXER,FULLSERVICERESTAURANT KITCHEN - 90.1-2013 SERVICE WATER LOOP DEMAND BYPASS BRANCH,FULLSERVICERESTAURANT KITCHEN - 90.1-2013 SERVICE WATER LOOP DEMAND OUTLET BRANCH,FULLSERVICERESTAURANT KITCHEN - 90.1-2013 SERVICE WATER LOOP,Demand
     Plant Loop Connector Nodes,   4,Mixer,FULLSERVICERESTAURANT KITCHEN - 90.1-2013 SERVICE WATER LOOP DEMAND MIXER,FULLSERVICERESTAURANT KITCHEN - 90.1-2013 SERVICE WATER LOOP DEMAND BYPASS PIPE OUTLET NODE,PIPE ADIABATIC 4 INLET WATER NODE,FULLSERVICERESTAURANT KITCHEN - 90.1-2013 SERVICE WATER LOOP,Demand
 Plant Loop,FULLSERVICERESTAURANT KITCHEN - 90.1-2013 SERVICE WATER LOOP,Supply,FULLSERVICERESTAURANT KITCHEN - 90.1-2013 SERVICE WATER LOOP SUPPLY INLET NODE,FULLSERVICERESTAURANT KITCHEN - 90.1-2013 SERVICE WATER LOOP SUPPLY OUTLET NODE,FULLSERVICERESTAURANT KITCHEN - 90.1-2013 SERVICE WATER LOOP SUPPLY BRANCHES,FULLSERVICERESTAURANT KITCHEN - 90.1-2013 SERVICE WATER LOOP SUPPLY CONNECTOR LIST
   Plant Loop Connector,Splitter,FULLSERVICERESTAURANT KITCHEN - 90.1-2013 SERVICE WATER LOOP SUPPLY SPLITTER,FULLSERVICERESTAURANT KITCHEN - 90.1-2013 SERVICE WATER LOOP,Supply,2
     Plant Loop Connector Branches,1,Splitter,FULLSERVICERESTAURANT KITCHEN - 90.1-2013 SERVICE WATER LOOP SUPPLY SPLITTER,FULLSERVICERESTAURANT KITCHEN - 90.1-2013 SERVICE WATER LOOP SUPPLY INLET BRANCH,FULLSERVICERESTAURANT KITCHEN - 90.1-2013 SERVICE WATER LOOP SUPPLY BRANCH 1,FULLSERVICERESTAURANT KITCHEN - 90.1-2013 SERVICE WATER LOOP,Supply
     Plant Loop Connector Nodes,   1,Splitter,FULLSERVICERESTAURANT KITCHEN - 90.1-2013 SERVICE WATER LOOP SUPPLY SPLITTER,FULLSERVICERESTAURANT KITCHEN - 90.1-2013 SERVICE WATER LOOP WATER MAINS PRESSURE DRIVEN OUTLET WATER NODE,1913GAL NATURALGAS WATER HEATER - 1913KBTU/HR SUPPLY INLET WATER NODE,FULLSERVICERESTAURANT KITCHEN - 90.1-2013 SERVICE WATER LOOP,Supply
     Plant Loop Connector Branches,2,Splitter,FULLSERVICERESTAURANT KITCHEN - 90.1-2013 SERVICE WATER LOOP SUPPLY SPLITTER,FULLSERVICERESTAURANT KITCHEN - 90.1-2013 SERVICE WATER LOOP SUPPLY INLET BRANCH,FULLSERVICERESTAURANT KITCHEN - 90.1-2013 SERVICE WATER LOOP SUPPLY BRANCH 2,FULLSERVICERESTAURANT KITCHEN - 90.1-2013 SERVICE WATER LOOP,Supply
     Plant Loop Connector Nodes,   2,Splitter,FULLSERVICERESTAURANT KITCHEN - 90.1-2013 SERVICE WATER LOOP SUPPLY SPLITTER,FULLSERVICERESTAURANT KITCHEN - 90.1-2013 SERVICE WATER LOOP WATER MAINS PRESSURE DRIVEN OUTLET WATER NODE,PIPE ADIABATIC 1 INLET WATER NODE,FULLSERVICERESTAURANT KITCHEN - 90.1-2013 SERVICE WATER LOOP,Supply
   Plant Loop Connector,Mixer,FULLSERVICERESTAURANT KITCHEN - 90.1-2013 SERVICE WATER LOOP SUPPLY MIXER,FULLSERVICERESTAURANT KITCHEN - 90.1-2013 SERVICE WATER LOOP,Supply,2
     Plant Loop Connector Branches,1,Mixer,FULLSERVICERESTAURANT KITCHEN - 90.1-2013 SERVICE WATER LOOP SUPPLY MIXER,FULLSERVICERESTAURANT KITCHEN - 90.1-2013 SERVICE WATER LOOP SUPPLY BRANCH 1,FULLSERVICERESTAURANT KITCHEN - 90.1-2013 SERVICE WATER LOOP SUPPLY OUTLET BRANCH,FULLSERVICERESTAURANT KITCHEN - 90.1-2013 SERVICE WATER LOOP,Supply
     Plant Loop Connector Nodes,   1,Mixer,FULLSERVICERESTAURANT KITCHEN - 90.1-2013 SERVICE WATER LOOP SUPPLY MIXER,1913GAL NATURALGAS WATER HEATER - 1913KBTU/HR SUPPLY OUTLET WATER NODE,PIPE ADIABATIC 3 INLET WATER NODE,FULLSERVICERESTAURANT KITCHEN - 90.1-2013 SERVICE WATER LOOP,Supply
     Plant Loop Connector Branches,2,Mixer,FULLSERVICERESTAURANT KITCHEN - 90.1-2013 SERVICE WATER LOOP SUPPLY MIXER,FULLSERVICERESTAURANT KITCHEN - 90.1-2013 SERVICE WATER LOOP SUPPLY BRANCH 2,FULLSERVICERESTAURANT KITCHEN - 90.1-2013 SERVICE WATER LOOP SUPPLY OUTLET BRANCH,FULLSERVICERESTAURANT KITCHEN - 90.1-2013 SERVICE WATER LOOP,Supply
     Plant Loop Connector Nodes,   2,Mixer,FULLSERVICERESTAURANT KITCHEN - 90.1-2013 SERVICE WATER LOOP SUPPLY MIXER,PIPE ADIABATIC 1 OUTLET WATER NODE,PIPE ADIABATIC 3 INLET WATER NODE,FULLSERVICERESTAURANT KITCHEN - 90.1-2013 SERVICE WATER LOOP,Supply
 Plant Loop Supply Connection,FULLSERVICERESTAURANT KITCHEN - 90.1-2013 SERVICE WATER LOOP,FULLSERVICERESTAURANT KITCHEN - 90.1-2013 SERVICE WATER LOOP SUPPLY OUTLET NODE,FULLSERVICERESTAURANT KITCHEN - 90.1-2013 SERVICE WATER LOOP DEMAND INLET NODE
 Plant Loop Return Connection,FULLSERVICERESTAURANT KITCHEN - 90.1-2013 SERVICE WATER LOOP,FULLSERVICERESTAURANT KITCHEN - 90.1-2013 SERVICE WATER LOOP DEMAND OUTLET NODE,FULLSERVICERESTAURANT KITCHEN - 90.1-2013 SERVICE WATER LOOP SUPPLY INLET NODE
 Plant Loop,HOT WATER LOOP,Demand,HOT WATER LOOP DEMAND INLET NODE,HOT WATER LOOP DEMAND OUTLET NODE,HOT WATER LOOP DEMAND BRANCHES,HOT WATER LOOP DEMAND CONNECTOR LIST
   Plant Loop Connector,Splitter,HOT WATER LOOP DEMAND SPLITTER,HOT WATER LOOP,Demand,8
     Plant Loop Connector Branches,1,Splitter,HOT WATER LOOP DEMAND SPLITTER,HOT WATER LOOP DEMAND INLET BRANCH,HOT WATER LOOP DEMAND BRANCH 1,HOT WATER LOOP,Demand
     Plant Loop Connector Nodes,   1,Splitter,HOT WATER LOOP DEMAND SPLITTER,HOT WATER LOOP DEMAND INLET OUTLET WATER NODE,HOT WATER LOOP COIL BYPASS INLET WATER NODE,HOT WATER LOOP,Demand
     Plant Loop Connector Branches,2,Splitter,HOT WATER LOOP DEMAND SPLITTER,HOT WATER LOOP DEMAND INLET BRANCH,HOT WATER LOOP DEMAND BRANCH 2,HOT WATER LOOP,Demand
     Plant Loop Connector Nodes,   2,Splitter,HOT WATER LOOP DEMAND SPLITTER,HOT WATER LOOP DEMAND INLET OUTLET WATER NODE,1 ZONE PVAV MAIN HTG COIL INLET WATER NODE,HOT WATER LOOP,Demand
     Plant Loop Connector Branches,3,Splitter,HOT WATER LOOP DEMAND SPLITTER,HOT WATER LOOP DEMAND INLET BRANCH,HOT WATER LOOP DEMAND BRANCH 3,HOT WATER LOOP,Demand
     Plant Loop Connector Nodes,   3,Splitter,HOT WATER LOOP DEMAND SPLITTER,HOT WATER LOOP DEMAND INLET OUTLET WATER NODE,BUILDING STORY 1 THERMALZONE REHEAT COIL INLET WATER NODE,HOT WATER LOOP,Demand
     Plant Loop Connector Branches,4,Splitter,HOT WATER LOOP DEMAND SPLITTER,HOT WATER LOOP DEMAND INLET BRANCH,HOT WATER LOOP DEMAND BRANCH 4,HOT WATER LOOP,Demand
     Plant Loop Connector Nodes,   4,Splitter,HOT WATER LOOP DEMAND SPLITTER,HOT WATER LOOP DEMAND INLET OUTLET WATER NODE,1 ZONE PVAV 1 MAIN HTG COIL INLET WATER NODE,HOT WATER LOOP,Demand
     Plant Loop Connector Branches,5,Splitter,HOT WATER LOOP DEMAND SPLITTER,HOT WATER LOOP DEMAND INLET BRANCH,HOT WATER LOOP DEMAND BRANCH 5,HOT WATER LOOP,Demand
     Plant Loop Connector Nodes,   5,Splitter,HOT WATER LOOP DEMAND SPLITTER,HOT WATER LOOP DEMAND INLET OUTLET WATER NODE,BUILDING STORY 2 THERMALZONE REHEAT COIL INLET WATER NODE,HOT WATER LOOP,Demand
     Plant Loop Connector Branches,6,Splitter,HOT WATER LOOP DEMAND SPLITTER,HOT WATER LOOP DEMAND INLET BRANCH,HOT WATER LOOP DEMAND BRANCH 6,HOT WATER LOOP,Demand
     Plant Loop Connector Nodes,   6,Splitter,HOT WATER LOOP DEMAND SPLITTER,HOT WATER LOOP DEMAND INLET OUTLET WATER NODE,1 ZONE PVAV 2 MAIN HTG COIL INLET WATER NODE,HOT WATER LOOP,Demand
     Plant Loop Connector Branches,7,Splitter,HOT WATER LOOP DEMAND SPLITTER,HOT WATER LOOP DEMAND INLET BRANCH,HOT WATER LOOP DEMAND BRANCH 7,HOT WATER LOOP,Demand
     Plant Loop Connector Nodes,   7,Splitter,HOT WATER LOOP DEMAND SPLITTER,HOT WATER LOOP DEMAND INLET OUTLET WATER NODE,BUILDING STORY 3 THERMALZONE REHEAT COIL INLET WATER NODE,HOT WATER LOOP,Demand
     Plant Loop Connector Branches,8,Splitter,HOT WATER LOOP DEMAND SPLITTER,HOT WATER LOOP DEMAND INLET BRANCH,HOT WATER LOOP DEMAND BYPASS BRANCH,HOT WATER LOOP,Demand
     Plant Loop Connector Nodes,   8,Splitter,HOT WATER LOOP DEMAND SPLITTER,HOT WATER LOOP DEMAND INLET OUTLET WATER NODE,HOT WATER LOOP DEMAND BYPASS PIPE INLET NODE,HOT WATER LOOP,Demand
   Plant Loop Connector,Mixer,HOT WATER LOOP DEMAND MIXER,HOT WATER LOOP,Demand,8
     Plant Loop Connector Branches,1,Mixer,HOT WATER LOOP DEMAND MIXER,HOT WATER LOOP DEMAND BRANCH 1,HOT WATER LOOP DEMAND OUTLET BRANCH,HOT WATER LOOP,Demand
     Plant Loop Connector Nodes,   1,Mixer,HOT WATER LOOP DEMAND MIXER,HOT WATER LOOP COIL BYPASS OUTLET WATER NODE,HOT WATER LOOP DEMAND OUTLET INLET WATER NODE,HOT WATER LOOP,Demand
     Plant Loop Connector Branches,2,Mixer,HOT WATER LOOP DEMAND MIXER,HOT WATER LOOP DEMAND BRANCH 2,HOT WATER LOOP DEMAND OUTLET BRANCH,HOT WATER LOOP,Demand
     Plant Loop Connector Nodes,   2,Mixer,HOT WATER LOOP DEMAND MIXER,1 ZONE PVAV MAIN HTG COIL OUTLET WATER NODE,HOT WATER LOOP DEMAND OUTLET INLET WATER NODE,HOT WATER LOOP,Demand
     Plant Loop Connector Branches,3,Mixer,HOT WATER LOOP DEMAND MIXER,HOT WATER LOOP DEMAND BRANCH 3,HOT WATER LOOP DEMAND OUTLET BRANCH,HOT WATER LOOP,Demand
     Plant Loop Connector Nodes,   3,Mixer,HOT WATER LOOP DEMAND MIXER,BUILDING STORY 1 THERMALZONE REHEAT COIL OUTLET WATER NODE,HOT WATER LOOP DEMAND OUTLET INLET WATER NODE,HOT WATER LOOP,Demand
     Plant Loop Connector Branches,4,Mixer,HOT WATER LOOP DEMAND MIXER,HOT WATER LOOP DEMAND BRANCH 4,HOT WATER LOOP DEMAND OUTLET BRANCH,HOT WATER LOOP,Demand
     Plant Loop Connector Nodes,   4,Mixer,HOT WATER LOOP DEMAND MIXER,1 ZONE PVAV 1 MAIN HTG COIL OUTLET WATER NODE,HOT WATER LOOP DEMAND OUTLET INLET WATER NODE,HOT WATER LOOP,Demand
     Plant Loop Connector Branches,5,Mixer,HOT WATER LOOP DEMAND MIXER,HOT WATER LOOP DEMAND BRANCH 5,HOT WATER LOOP DEMAND OUTLET BRANCH,HOT WATER LOOP,Demand
     Plant Loop Connector Nodes,   5,Mixer,HOT WATER LOOP DEMAND MIXER,BUILDING STORY 2 THERMALZONE REHEAT COIL OUTLET WATER NODE,HOT WATER LOOP DEMAND OUTLET INLET WATER NODE,HOT WATER LOOP,Demand
     Plant Loop Connector Branches,6,Mixer,HOT WATER LOOP DEMAND MIXER,HOT WATER LOOP DEMAND BRANCH 6,HOT WATER LOOP DEMAND OUTLET BRANCH,HOT WATER LOOP,Demand
     Plant Loop Connector Nodes,   6,Mixer,HOT WATER LOOP DEMAND MIXER,1 ZONE PVAV 2 MAIN HTG COIL OUTLET WATER NODE,HOT WATER LOOP DEMAND OUTLET INLET WATER NODE,HOT WATER LOOP,Demand
     Plant Loop Connector Branches,7,Mixer,HOT WATER LOOP DEMAND MIXER,HOT WATER LOOP DEMAND BRANCH 7,HOT WATER LOOP DEMAND OUTLET BRANCH,HOT WATER LOOP,Demand
     Plant Loop Connector Nodes,   7,Mixer,HOT WATER LOOP DEMAND MIXER,BUILDING STORY 3 THERMALZONE REHEAT COIL OUTLET WATER NODE,HOT WATER LOOP DEMAND OUTLET INLET WATER NODE,HOT WATER LOOP,Demand
     Plant Loop Connector Branches,8,Mixer,HOT WATER LOOP DEMAND MIXER,HOT WATER LOOP DEMAND BYPASS BRANCH,HOT WATER LOOP DEMAND OUTLET BRANCH,HOT WATER LOOP,Demand
     Plant Loop Connector Nodes,   8,Mixer,HOT WATER LOOP DEMAND MIXER,HOT WATER LOOP DEMAND BYPASS PIPE OUTLET NODE,HOT WATER LOOP DEMAND OUTLET INLET WATER NODE,HOT WATER LOOP,Demand
 Plant Loop,HOT WATER LOOP,Supply,HOT WATER LOOP SUPPLY INLET NODE,HOT WATER LOOP SUPPLY OUTLET NODE,HOT WATER LOOP SUPPLY BRANCHES,HOT WATER LOOP SUPPLY CONNECTOR LIST
   Plant Loop Connector,Splitter,HOT WATER LOOP SUPPLY SPLITTER,HOT WATER LOOP,Supply,2
     Plant Loop Connector Branches,1,Splitter,HOT WATER LOOP SUPPLY SPLITTER,HOT WATER LOOP SUPPLY INLET BRANCH,HOT WATER LOOP SUPPLY BRANCH 1,HOT WATER LOOP,Supply
     Plant Loop Connector Nodes,   1,Splitter,HOT WATER LOOP SUPPLY SPLITTER,HOT WATER LOOP PUMP OUTLET WATER NODE,BOILER INLET WATER NODE,HOT WATER LOOP,Supply
     Plant Loop Connector Branches,2,Splitter,HOT WATER LOOP SUPPLY SPLITTER,HOT WATER LOOP SUPPLY INLET BRANCH,HOT WATER LOOP SUPPLY BRANCH 2,HOT WATER LOOP,Supply
     Plant Loop Connector Nodes,   2,Splitter,HOT WATER LOOP SUPPLY SPLITTER,HOT WATER LOOP PUMP OUTLET WATER NODE,HOT WATER LOOP SUPPLY EQUIPMENT BYPASS INLET WATER NODE,HOT WATER LOOP,Supply
   Plant Loop Connector,Mixer,HOT WATER LOOP SUPPLY MIXER,HOT WATER LOOP,Supply,2
     Plant Loop Connector Branches,1,Mixer,HOT WATER LOOP SUPPLY MIXER,HOT WATER LOOP SUPPLY BRANCH 1,HOT WATER LOOP SUPPLY OUTLET BRANCH,HOT WATER LOOP,Supply
     Plant Loop Connector Nodes,   1,Mixer,HOT WATER LOOP SUPPLY MIXER,BOILER OUTLET WATER NODE,HOT WATER LOOP SUPPLY OUTLET INLET WATER NODE,HOT WATER LOOP,Supply
     Plant Loop Connector Branches,2,Mixer,HOT WATER LOOP SUPPLY MIXER,HOT WATER LOOP SUPPLY BRANCH 2,HOT WATER LOOP SUPPLY OUTLET BRANCH,HOT WATER LOOP,Supply
     Plant Loop Connector Nodes,   2,Mixer,HOT WATER LOOP SUPPLY MIXER,HOT WATER LOOP SUPPLY EQUIPMENT BYPASS OUTLET WATER NODE,HOT WATER LOOP SUPPLY OUTLET INLET WATER NODE,HOT WATER LOOP,Supply
 Plant Loop Supply Connection,HOT WATER LOOP,HOT WATER LOOP SUPPLY OUTLET NODE,HOT WATER LOOP DEMAND INLET NODE
 Plant Loop Return Connection,HOT WATER LOOP,HOT WATER LOOP DEMAND OUTLET NODE,HOT WATER LOOP SUPPLY INLET NODE
! ===============================================================
! <# Condenser Loops>,<Number of Condenser Loops>
 #Condenser Loops,0
! <Condenser Loop>,<Condenser Loop Name>,<Loop Type>,<Inlet Node Name>,<Outlet Node Name>,<Branch List>,<Connector List>
! <Condenser Loop Connector>,<Connector Type>,<Connector Name>,<Loop Name>,<Loop Type>,<Number of Inlets/Outlets>
! <Condenser Loop Connector Branches>,<Connector Node Count>,<Connector Type>,<Connector Name>,<Inlet Branch>,<Outlet Branch>,<Loop Name>,<Loop Type>
! <Condenser Loop Connector Nodes>,<Connector Node Count>,<Connector Type>,<Connector Name>,<Inlet Node>,<Outlet Node>,<Loop Name>,<Loop Type>
! <Condenser Loop Supply Connection>,<Condenser Loop Name>,<Supply Side Outlet Node Name>,<Demand Side Inlet Node Name>
! <Condenser Loop Return Connection>,<Condenser Loop Name>,<Demand Side Outlet Node Name>,<Supply Side Inlet Node Name>
! ===============================================================
! <# Controlled Zones>,<Number of Controlled Zones>
 #Controlled Zones,3
! <Controlled Zone>,<Controlled Zone Name>,<Equip List Name>,<Control List Name>,<Zone Node Name>,<# Inlet Nodes>,<# Exhaust Nodes>,<# Return Nodes>
! <Controlled Zone Inlet>,<Inlet Node Count>,<Controlled Zone Name>,<Supply Air Inlet Node Name>,<SD Sys:Cooling/Heating [DD:Cooling] Inlet Node Name>,<DD Sys:Heating Inlet Node Name>
! <Controlled Zone Exhaust>,<Exhaust Node Count>,<Controlled Zone Name>,<Exhaust Air Node Name>
 Controlled Zone,BUILDING STORY 1 THERMALZONE,BUILDING STORY 1 THERMALZONE EQUIPMENT LIST,,BUILDING STORY 1 THERMALZONE ZONE AIR NODE,1,0,1
   Controlled Zone Inlet,1,BUILDING STORY 1 THERMALZONE,BUILDING STORY 1 THERMALZONE VAV TERMINAL OUTLET AIR NODE,BUILDING STORY 1 THERMALZONE VAV TERMINAL INLET AIR NODE,N/A
   Controlled Zone Return,1,BUILDING STORY 1 THERMALZONE,BUILDING STORY 1 THERMALZONE RETURN AIR NODE
 Controlled Zone,BUILDING STORY 2 THERMALZONE,BUILDING STORY 2 THERMALZONE EQUIPMENT LIST,,BUILDING STORY 2 THERMALZONE ZONE AIR NODE,1,0,1
   Controlled Zone Inlet,1,BUILDING STORY 2 THERMALZONE,BUILDING STORY 2 THERMALZONE VAV TERMINAL OUTLET AIR NODE,BUILDING STORY 2 THERMALZONE VAV TERMINAL INLET AIR NODE,N/A
   Controlled Zone Return,1,BUILDING STORY 2 THERMALZONE,BUILDING STORY 2 THERMALZONE RETURN AIR NODE
 Controlled Zone,BUILDING STORY 3 THERMALZONE,BUILDING STORY 3 THERMALZONE EQUIPMENT LIST,,BUILDING STORY 3 THERMALZONE ZONE AIR NODE,1,0,1
   Controlled Zone Inlet,1,BUILDING STORY 3 THERMALZONE,BUILDING STORY 3 THERMALZONE VAV TERMINAL OUTLET AIR NODE,BUILDING STORY 3 THERMALZONE VAV TERMINAL INLET AIR NODE,N/A
   Controlled Zone Return,1,BUILDING STORY 3 THERMALZONE,BUILDING STORY 3 THERMALZONE RETURN AIR NODE
! ===============================================================
! <#Zone Equipment Lists>,<Number of Zone Equipment Lists>
 #Zone Equipment Lists,3
! <Zone Equipment List>,<Zone Equipment List Count>,<Zone Equipment List Name>,<Zone Name>,<Number of Components>
! <Zone Equipment Component>,<Component Count>,<Component Type>,<Component Name>,<Zone Name>,<Heating Priority>,<Cooling Priority>
 Zone Equipment List,1,BUILDING STORY 1 THERMALZONE EQUIPMENT LIST,BUILDING STORY 1 THERMALZONE,1
   Zone Equipment Component,1,ZONEHVAC:AIRDISTRIBUTIONUNIT,ADU BUILDING STORY 1 THERMALZONE VAV TERMINAL,BUILDING STORY 1 THERMALZONE,1,1
 Zone Equipment List,2,BUILDING STORY 2 THERMALZONE EQUIPMENT LIST,BUILDING STORY 2 THERMALZONE,1
   Zone Equipment Component,1,ZONEHVAC:AIRDISTRIBUTIONUNIT,ADU BUILDING STORY 2 THERMALZONE VAV TERMINAL,BUILDING STORY 2 THERMALZONE,1,1
 Zone Equipment List,3,BUILDING STORY 3 THERMALZONE EQUIPMENT LIST,BUILDING STORY 3 THERMALZONE,1
   Zone Equipment Component,1,ZONEHVAC:AIRDISTRIBUTIONUNIT,ADU BUILDING STORY 3 THERMALZONE VAV TERMINAL,BUILDING STORY 3 THERMALZONE,1,1
! ===============================================================
! <#AirLoopHVACs>,<Number of AirLoopHVACs>
 #AirLoopHVACs,3
! <AirLoopHVAC>,<Air Loop Name>,<# Return Nodes>,<# Supply Nodes>,<# Zones Cooled>,<# Zones Heated>,<Outdoor Air Used>
! <AirLoop Return Connections>,<Connection Count>,<AirLoopHVAC Name>,<Zn Eqp Return Node #>,<Zn Eqp Return Node Name>,<AirLoop Return Node #>,<Air Loop Return Node Name>
! <AirLoop Supply Connections>,<Connection Count>,<AirLoopHVAC Name>,<Zn Eqp Supply Node #>,<Zn Eqp Supply Node Name>,<AirLoop Supply Node #>,<Air Loop Supply Node Name>
! <Cooled Zone Info>,<Cooled Zone Count>,<Cooled Zone Name>,<Cooled Zone Inlet Node #>,<Cooled Zone Inlet Node Name>,<AirLoopHVAC Name>
! <Heated Zone Info>,<Heated Zone Count>,<Heated Zone Name>,<Heated Zone Inlet Node #>,<Heated Zone Inlet Node Name>,<AirLoopHVAC Name>
! <Outdoor Air Connections>,<OA Inlet Node #>,<OA Return Air Inlet Node Name>,<OA Outlet Node #>,<OA Mixed Air Outlet Node Name>,<AirLoopHVAC Name>
! <AirLoopHVAC Connector>,<Connector Type>,<Connector Name>,<Loop Name>,<Loop Type>,<Number of Inlets/Outlets>
! <AirLoopHVAC Connector Branches>,<Connector Node Count>,<Connector Type>,<Connector Name>,<Inlet Branch>,<Outlet Branch>,<Loop Name>,<Loop Type>
! <AirLoopHVAC Connector Nodes>,<Connector Node Count>,<Connector Type>,<Connector Name>,<Inlet Node>,<Outlet Node>,<Loop Name>,<Loop Type>
 AirLoopHVAC,1 ZONE PVAV,1,1,1,0,Yes
   AirLoop Return Connections,1,1 ZONE PVAV,96,1 ZONE PVAV DEMAND OUTLET NODE,13,1 ZONE PVAV SUPPLY INLET NODE
   AirLoop Supply Connections,1,1 ZONE PVAV,8,1 ZONE PVAV DEMAND INLET NODE,7,1 ZONE PVAV SUPPLY OUTLET NODE
   Cooled Zone Info,1,BUILDING STORY 1 THERMALZONE,1,BUILDING STORY 1 THERMALZONE VAV TERMINAL OUTLET AIR NODE,1 ZONE PVAV
   Outdoor Air Connections,13,1 ZONE PVAV SUPPLY INLET NODE,14,1 ZONE PVAV MIXED AIR NODE,1 ZONE PVAV
 AirLoopHVAC,1 ZONE PVAV 1,1,1,1,0,Yes
   AirLoop Return Connections,1,1 ZONE PVAV 1,97,1 ZONE PVAV 1 DEMAND OUTLET NODE,17,1 ZONE PVAV 1 SUPPLY INLET NODE
   AirLoop Supply Connections,1,1 ZONE PVAV 1,10,1 ZONE PVAV 1 DEMAND INLET NODE,9,1 ZONE PVAV 1 SUPPLY OUTLET NODE
   Cooled Zone Info,1,BUILDING STORY 2 THERMALZONE,3,BUILDING STORY 2 THERMALZONE VAV TERMINAL OUTLET AIR NODE,1 ZONE PVAV 1
   Outdoor Air Connections,17,1 ZONE PVAV 1 SUPPLY INLET NODE,18,1 ZONE PVAV 1 MIXED AIR NODE,1 ZONE PVAV 1
 AirLoopHVAC,1 ZONE PVAV 2,1,1,1,0,Yes
   AirLoop Return Connections,1,1 ZONE PVAV 2,98,1 ZONE PVAV 2 DEMAND OUTLET NODE,21,1 ZONE PVAV 2 SUPPLY INLET NODE
   AirLoop Supply Connections,1,1 ZONE PVAV 2,12,1 ZONE PVAV 2 DEMAND INLET NODE,11,1 ZONE PVAV 2 SUPPLY OUTLET NODE
   Cooled Zone Info,1,BUILDING STORY 3 THERMALZONE,5,BUILDING STORY 3 THERMALZONE VAV TERMINAL OUTLET AIR NODE,1 ZONE PVAV 2
   Outdoor Air Connections,21,1 ZONE PVAV 2 SUPPLY INLET NODE,22,1 ZONE PVAV 2 MIXED AIR NODE,1 ZONE PVAV 2
! ===============================================================
! <#Parent Node Connections>,<Number of Parent Node Connections>
 #Parent Node Connections,131
! <Parent Node Connection>,<Node Name>,<Node ObjectType>,<Node ObjectName>,<Node ConnectionType>,<Node FluidStream>
 Parent Node Connection,1 ZONE PVAV SUPPLY INLET NODE,BRANCH,1 ZONE PVAV MAIN BRANCH,Inlet,1
 Parent Node Connection,1 ZONE PVAV MIXED AIR NODE,BRANCH,1 ZONE PVAV MAIN BRANCH,Internal,1
 Parent Node Connection,1 ZONE PVAV 2SPD DX CLG COIL OUTLET AIR NODE,BRANCH,1 ZONE PVAV MAIN BRANCH,Internal,1
 Parent Node Connection,1 ZONE PVAV MAIN HTG COIL OUTLET AIR NODE,BRANCH,1 ZONE PVAV MAIN BRANCH,Internal,1
 Parent Node Connection,1 ZONE PVAV SUPPLY OUTLET NODE,BRANCH,1 ZONE PVAV MAIN BRANCH,Outlet,1
 Parent Node Connection,1 ZONE PVAV 1 SUPPLY INLET NODE,BRANCH,1 ZONE PVAV 1 MAIN BRANCH,Inlet,1
 Parent Node Connection,1 ZONE PVAV 1 MIXED AIR NODE,BRANCH,1 ZONE PVAV 1 MAIN BRANCH,Internal,1
 Parent Node Connection,1 ZONE PVAV 1 2SPD DX CLG COIL OUTLET AIR NODE,BRANCH,1 ZONE PVAV 1 MAIN BRANCH,Internal,1
 Parent Node Connection,1 ZONE PVAV 1 MAIN HTG COIL OUTLET AIR NODE,BRANCH,1 ZONE PVAV 1 MAIN BRANCH,Internal,1
 Parent Node Connection,1 ZONE PVAV 1 SUPPLY OUTLET NODE,BRANCH,1 ZONE PVAV 1 MAIN BRANCH,Outlet,1
 Parent Node Connection,1 ZONE PVAV 2 SUPPLY INLET NODE,BRANCH,1 ZONE PVAV 2 MAIN BRANCH,Inlet,1
 Parent Node Connection,1 ZONE PVAV 2 MIXED AIR NODE,BRANCH,1 ZONE PVAV 2 MAIN BRANCH,Internal,1
 Parent Node Connection,1 ZONE PVAV 2 2SPD DX CLG COIL OUTLET AIR NODE,BRANCH,1 ZONE PVAV 2 MAIN BRANCH,Internal,1
 Parent Node Connection,1 ZONE PVAV 2 MAIN HTG COIL OUTLET AIR NODE,BRANCH,1 ZONE PVAV 2 MAIN BRANCH,Internal,1
 Parent Node Connection,1 ZONE PVAV 2 SUPPLY OUTLET NODE,BRANCH,1 ZONE PVAV 2 MAIN BRANCH,Outlet,1
 Parent Node Connection,FULLSERVICERESTAURANT KITCHEN - 90.1-2013 SERVICE WATER BOOSTER LOOP SUPPLY INLET NODE,BRANCH,FULLSERVICERESTAURANT KITCHEN - 90.1-2013 SERVICE WATER BOOSTER LOOP SUPPLY INLET BRANCH,Inlet,1
 Parent Node Connection,BOOSTER WATER LOOP PUMP INLET WATER NODE,BRANCH,FULLSERVICERESTAURANT KITCHEN - 90.1-2013 SERVICE WATER BOOSTER LOOP SUPPLY INLET BRANCH,Internal,1
 Parent Node Connection,BOOSTER WATER LOOP PUMP OUTLET WATER NODE,BRANCH,FULLSERVICERESTAURANT KITCHEN - 90.1-2013 SERVICE WATER BOOSTER LOOP SUPPLY INLET BRANCH,Outlet,1
 Parent Node Connection,6.0GAL ELECTRICITY BOOSTER WATER HEATER - 367KBTU/HR SUPPLY INLET WATER NODE,BRANCH,FULLSERVICERESTAURANT KITCHEN - 90.1-2013 SERVICE WATER BOOSTER LOOP SUPPLY BRANCH 1,Inlet,1
 Parent Node Connection,6.0GAL ELECTRICITY BOOSTER WATER HEATER - 367KBTU/HR SUPPLY OUTLET WATER NODE,BRANCH,FULLSERVICERESTAURANT KITCHEN - 90.1-2013 SERVICE WATER BOOSTER LOOP SUPPLY BRANCH 1,Outlet,1
 Parent Node Connection,PIPE ADIABATIC 5 INLET WATER NODE,BRANCH,FULLSERVICERESTAURANT KITCHEN - 90.1-2013 SERVICE WATER BOOSTER LOOP SUPPLY BRANCH 2,Inlet,1
 Parent Node Connection,PIPE ADIABATIC 5 OUTLET WATER NODE,BRANCH,FULLSERVICERESTAURANT KITCHEN - 90.1-2013 SERVICE WATER BOOSTER LOOP SUPPLY BRANCH 2,Outlet,1
 Parent Node Connection,PIPE ADIABATIC 7 INLET WATER NODE,BRANCH,FULLSERVICERESTAURANT KITCHEN - 90.1-2013 SERVICE WATER BOOSTER LOOP SUPPLY OUTLET BRANCH,Inlet,1
 Parent Node Connection,FULLSERVICERESTAURANT KITCHEN - 90.1-2013 SERVICE WATER BOOSTER LOOP SUPPLY OUTLET NODE,BRANCH,FULLSERVICERESTAURANT KITCHEN - 90.1-2013 SERVICE WATER BOOSTER LOOP SUPPLY OUTLET BRANCH,Outlet,1
 Parent Node Connection,FULLSERVICERESTAURANT KITCHEN - 90.1-2013 SERVICE WATER BOOSTER LOOP DEMAND INLET NODE,BRANCH,FULLSERVICERESTAURANT KITCHEN - 90.1-2013 SERVICE WATER BOOSTER LOOP DEMAND INLET BRANCH,Inlet,1
 Parent Node Connection,PIPE ADIABATIC 8 OUTLET WATER NODE,BRANCH,FULLSERVICERESTAURANT KITCHEN - 90.1-2013 SERVICE WATER BOOSTER LOOP DEMAND INLET BRANCH,Outlet,1
 Parent Node Connection,PIPE ADIABATIC 6 INLET WATER NODE,BRANCH,FULLSERVICERESTAURANT KITCHEN - 90.1-2013 SERVICE WATER BOOSTER LOOP DEMAND BRANCH 1,Inlet,1
 Parent Node Connection,PIPE ADIABATIC 6 OUTLET WATER NODE,BRANCH,FULLSERVICERESTAURANT KITCHEN - 90.1-2013 SERVICE WATER BOOSTER LOOP DEMAND BRANCH 1,Outlet,1
 Parent Node Connection,BOOSTER FULLSERVICERESTAURANT KITCHEN - 90.1-2013 WUC 30.37GPM AT 180F INLET WATER NODE,BRANCH,FULLSERVICERESTAURANT KITCHEN - 90.1-2013 SERVICE WATER BOOSTER LOOP DEMAND BRANCH 2,Inlet,1
 Parent Node Connection,BOOSTER FULLSERVICERESTAURANT KITCHEN - 90.1-2013 WUC 30.37GPM AT 180F OUTLET WATER NODE,BRANCH,FULLSERVICERESTAURANT KITCHEN - 90.1-2013 SERVICE WATER BOOSTER LOOP DEMAND BRANCH 2,Outlet,1
 Parent Node Connection,FULLSERVICERESTAURANT KITCHEN - 90.1-2013 SERVICE WATER BOOSTER LOOP DEMAND BYPASS PIPE INLET NODE,BRANCH,FULLSERVICERESTAURANT KITCHEN - 90.1-2013 SERVICE WATER BOOSTER LOOP DEMAND BYPASS BRANCH,Inlet,1
 Parent Node Connection,FULLSERVICERESTAURANT KITCHEN - 90.1-2013 SERVICE WATER BOOSTER LOOP DEMAND BYPASS PIPE OUTLET NODE,BRANCH,FULLSERVICERESTAURANT KITCHEN - 90.1-2013 SERVICE WATER BOOSTER LOOP DEMAND BYPASS BRANCH,Outlet,1
 Parent Node Connection,PIPE ADIABATIC 9 INLET WATER NODE,BRANCH,FULLSERVICERESTAURANT KITCHEN - 90.1-2013 SERVICE WATER BOOSTER LOOP DEMAND OUTLET BRANCH,Inlet,1
 Parent Node Connection,FULLSERVICERESTAURANT KITCHEN - 90.1-2013 SERVICE WATER BOOSTER LOOP DEMAND OUTLET NODE,BRANCH,FULLSERVICERESTAURANT KITCHEN - 90.1-2013 SERVICE WATER BOOSTER LOOP DEMAND OUTLET BRANCH,Outlet,1
 Parent Node Connection,FULLSERVICERESTAURANT KITCHEN - 90.1-2013 SERVICE WATER LOOP SUPPLY INLET NODE,BRANCH,FULLSERVICERESTAURANT KITCHEN - 90.1-2013 SERVICE WATER LOOP SUPPLY INLET BRANCH,Inlet,1
[...]
 Non-Parent Node Connection,HX FOR BOOSTER WATER HEATING DEMAND INLET WATER NODE,CONNECTOR:SPLITTER,FULLSERVICERESTAURANT KITCHEN - 90.1-2013 SERVICE WATER LOOP DEMAND SPLITTER,Outlet,1
 Non-Parent Node Connection,FULLSERVICERESTAURANT KITCHEN - 90.1-2013 SERVICE WATER LOOP DEMAND BYPASS PIPE INLET NODE,CONNECTOR:SPLITTER,FULLSERVICERESTAURANT KITCHEN - 90.1-2013 SERVICE WATER LOOP DEMAND SPLITTER,Outlet,1
 Non-Parent Node Connection,PIPE ADIABATIC 4 INLET WATER NODE,CONNECTOR:MIXER,FULLSERVICERESTAURANT KITCHEN - 90.1-2013 SERVICE WATER LOOP DEMAND MIXER,Outlet,1
 Non-Parent Node Connection,PIPE ADIABATIC 2 OUTLET WATER NODE,CONNECTOR:MIXER,FULLSERVICERESTAURANT KITCHEN - 90.1-2013 SERVICE WATER LOOP DEMAND MIXER,Inlet,1
 Non-Parent Node Connection,FULLSERVICERESTAURANT KITCHEN - 90.1-2013 WUC 20.25GPM AT 140F OUTLET WATER NODE,CONNECTOR:MIXER,FULLSERVICERESTAURANT KITCHEN - 90.1-2013 SERVICE WATER LOOP DEMAND MIXER,Inlet,1
 Non-Parent Node Connection,MAINS WATER MAKEUP FOR SWH BOOSTER OUTLET WATER NODE,CONNECTOR:MIXER,FULLSERVICERESTAURANT KITCHEN - 90.1-2013 SERVICE WATER LOOP DEMAND MIXER,Inlet,1
 Non-Parent Node Connection,FULLSERVICERESTAURANT KITCHEN - 90.1-2013 SERVICE WATER LOOP DEMAND BYPASS PIPE OUTLET NODE,CONNECTOR:MIXER,FULLSERVICERESTAURANT KITCHEN - 90.1-2013 SERVICE WATER LOOP DEMAND MIXER,Inlet,1
 Non-Parent Node Connection,FULLSERVICERESTAURANT KITCHEN - 90.1-2013 SERVICE WATER LOOP WATER MAINS PRESSURE DRIVEN OUTLET WATER NODE,CONNECTOR:SPLITTER,FULLSERVICERESTAURANT KITCHEN - 90.1-2013 SERVICE WATER LOOP SUPPLY SPLITTER,Inlet,1
 Non-Parent Node Connection,1913GAL NATURALGAS WATER HEATER - 1913KBTU/HR SUPPLY INLET WATER NODE,CONNECTOR:SPLITTER,FULLSERVICERESTAURANT KITCHEN - 90.1-2013 SERVICE WATER LOOP SUPPLY SPLITTER,Outlet,1
 Non-Parent Node Connection,PIPE ADIABATIC 1 INLET WATER NODE,CONNECTOR:SPLITTER,FULLSERVICERESTAURANT KITCHEN - 90.1-2013 SERVICE WATER LOOP SUPPLY SPLITTER,Outlet,1
 Non-Parent Node Connection,PIPE ADIABATIC 3 INLET WATER NODE,CONNECTOR:MIXER,FULLSERVICERESTAURANT KITCHEN - 90.1-2013 SERVICE WATER LOOP SUPPLY MIXER,Outlet,1
 Non-Parent Node Connection,1913GAL NATURALGAS WATER HEATER - 1913KBTU/HR SUPPLY OUTLET WATER NODE,CONNECTOR:MIXER,FULLSERVICERESTAURANT KITCHEN - 90.1-2013 SERVICE WATER LOOP SUPPLY MIXER,Inlet,1
 Non-Parent Node Connection,PIPE ADIABATIC 1 OUTLET WATER NODE,CONNECTOR:MIXER,FULLSERVICERESTAURANT KITCHEN - 90.1-2013 SERVICE WATER LOOP SUPPLY MIXER,Inlet,1
 Non-Parent Node Connection,HOT WATER LOOP DEMAND INLET OUTLET WATER NODE,CONNECTOR:SPLITTER,HOT WATER LOOP DEMAND SPLITTER,Inlet,1
 Non-Parent Node Connection,HOT WATER LOOP COIL BYPASS INLET WATER NODE,CONNECTOR:SPLITTER,HOT WATER LOOP DEMAND SPLITTER,Outlet,1
 Non-Parent Node Connection,1 ZONE PVAV MAIN HTG COIL INLET WATER NODE,CONNECTOR:SPLITTER,HOT WATER LOOP DEMAND SPLITTER,Outlet,1
 Non-Parent Node Connection,BUILDING STORY 1 THERMALZONE REHEAT COIL INLET WATER NODE,CONNECTOR:SPLITTER,HOT WATER LOOP DEMAND SPLITTER,Outlet,1
 Non-Parent Node Connection,1 ZONE PVAV 1 MAIN HTG COIL INLET WATER NODE,CONNECTOR:SPLITTER,HOT WATER LOOP DEMAND SPLITTER,Outlet,1
 Non-Parent Node Connection,BUILDING STORY 2 THERMALZONE REHEAT COIL INLET WATER NODE,CONNECTOR:SPLITTER,HOT WATER LOOP DEMAND SPLITTER,Outlet,1
 Non-Parent Node Connection,1 ZONE PVAV 2 MAIN HTG COIL INLET WATER NODE,CONNECTOR:SPLITTER,HOT WATER LOOP DEMAND SPLITTER,Outlet,1
 Non-Parent Node Connection,BUILDING STORY 3 THERMALZONE REHEAT COIL INLET WATER NODE,CONNECTOR:SPLITTER,HOT WATER LOOP DEMAND SPLITTER,Outlet,1
 Non-Parent Node Connection,HOT WATER LOOP DEMAND BYPASS PIPE INLET NODE,CONNECTOR:SPLITTER,HOT WATER LOOP DEMAND SPLITTER,Outlet,1
 Non-Parent Node Connection,HOT WATER LOOP DEMAND OUTLET INLET WATER NODE,CONNECTOR:MIXER,HOT WATER LOOP DEMAND MIXER,Outlet,1
 Non-Parent Node Connection,HOT WATER LOOP COIL BYPASS OUTLET WATER NODE,CONNECTOR:MIXER,HOT WATER LOOP DEMAND MIXER,Inlet,1
 Non-Parent Node Connection,1 ZONE PVAV MAIN HTG COIL OUTLET WATER NODE,CONNECTOR:MIXER,HOT WATER LOOP DEMAND MIXER,Inlet,1
 Non-Parent Node Connection,BUILDING STORY 1 THERMALZONE REHEAT COIL OUTLET WATER NODE,CONNECTOR:MIXER,HOT WATER LOOP DEMAND MIXER,Inlet,1
 Non-Parent Node Connection,1 ZONE PVAV 1 MAIN HTG COIL OUTLET WATER NODE,CONNECTOR:MIXER,HOT WATER LOOP DEMAND MIXER,Inlet,1
 Non-Parent Node Connection,BUILDING STORY 2 THERMALZONE REHEAT COIL OUTLET WATER NODE,CONNECTOR:MIXER,HOT WATER LOOP DEMAND MIXER,Inlet,1
 Non-Parent Node Connection,1 ZONE PVAV 2 MAIN HTG COIL OUTLET WATER NODE,CONNECTOR:MIXER,HOT WATER LOOP DEMAND MIXER,Inlet,1
 Non-Parent Node Connection,BUILDING STORY 3 THERMALZONE REHEAT COIL OUTLET WATER NODE,CONNECTOR:MIXER,HOT WATER LOOP DEMAND MIXER,Inlet,1
 Non-Parent Node Connection,HOT WATER LOOP DEMAND BYPASS PIPE OUTLET NODE,CONNECTOR:MIXER,HOT WATER LOOP DEMAND MIXER,Inlet,1
 Non-Parent Node Connection,HOT WATER LOOP PUMP OUTLET WATER NODE,CONNECTOR:SPLITTER,HOT WATER LOOP SUPPLY SPLITTER,Inlet,1
 Non-Parent Node Connection,BOILER INLET WATER NODE,CONNECTOR:SPLITTER,HOT WATER LOOP SUPPLY SPLITTER,Outlet,1
 Non-Parent Node Connection,HOT WATER LOOP SUPPLY EQUIPMENT BYPASS INLET WATER NODE,CONNECTOR:SPLITTER,HOT WATER LOOP SUPPLY SPLITTER,Outlet,1
 Non-Parent Node Connection,HOT WATER LOOP SUPPLY OUTLET INLET WATER NODE,CONNECTOR:MIXER,HOT WATER LOOP SUPPLY MIXER,Outlet,1
 Non-Parent Node Connection,BOILER OUTLET WATER NODE,CONNECTOR:MIXER,HOT WATER LOOP SUPPLY MIXER,Inlet,1
 Non-Parent Node Connection,HOT WATER LOOP SUPPLY EQUIPMENT BYPASS OUTLET WATER NODE,CONNECTOR:MIXER,HOT WATER LOOP SUPPLY MIXER,Inlet,1
 Non-Parent Node Connection,BOOSTER FULLSERVICERESTAURANT KITCHEN - 90.1-2013 WUC 30.37GPM AT 180F INLET WATER NODE,WATERUSE:CONNECTIONS,BOOSTER FULLSERVICERESTAURANT KITCHEN - 90.1-2013 WUC 30.37GPM AT 180F,Inlet,1
 Non-Parent Node Connection,BOOSTER FULLSERVICERESTAURANT KITCHEN - 90.1-2013 WUC 30.37GPM AT 180F OUTLET WATER NODE,WATERUSE:CONNECTIONS,BOOSTER FULLSERVICERESTAURANT KITCHEN - 90.1-2013 WUC 30.37GPM AT 180F,Outlet,1
 Non-Parent Node Connection,FULLSERVICERESTAURANT KITCHEN - 90.1-2013 WUC 20.25GPM AT 140F INLET WATER NODE,WATERUSE:CONNECTIONS,FULLSERVICERESTAURANT KITCHEN - 90.1-2013 WUC 20.25GPM AT 140F,Inlet,1
 Non-Parent Node Connection,FULLSERVICERESTAURANT KITCHEN - 90.1-2013 WUC 20.25GPM AT 140F OUTLET WATER NODE,WATERUSE:CONNECTIONS,FULLSERVICERESTAURANT KITCHEN - 90.1-2013 WUC 20.25GPM AT 140F,Outlet,1
 Non-Parent Node Connection,1 ZONE PVAV DEMAND INLET NODE,AIRLOOPHVAC:ZONESPLITTER,AIR LOOP HVAC ZONE SPLITTER 1,Inlet,1
 Non-Parent Node Connection,BUILDING STORY 1 THERMALZONE VAV TERMINAL INLET AIR NODE,AIRLOOPHVAC:ZONESPLITTER,AIR LOOP HVAC ZONE SPLITTER 1,Outlet,1
 Non-Parent Node Connection,1 ZONE PVAV 1 DEMAND INLET NODE,AIRLOOPHVAC:ZONESPLITTER,AIR LOOP HVAC ZONE SPLITTER 2,Inlet,1
 Non-Parent Node Connection,BUILDING STORY 2 THERMALZONE VAV TERMINAL INLET AIR NODE,AIRLOOPHVAC:ZONESPLITTER,AIR LOOP HVAC ZONE SPLITTER 2,Outlet,1
 Non-Parent Node Connection,1 ZONE PVAV 2 DEMAND INLET NODE,AIRLOOPHVAC:ZONESPLITTER,AIR LOOP HVAC ZONE SPLITTER 3,Inlet,1
 Non-Parent Node Connection,BUILDING STORY 3 THERMALZONE VAV TERMINAL INLET AIR NODE,AIRLOOPHVAC:ZONESPLITTER,AIR LOOP HVAC ZONE SPLITTER 3,Outlet,1
 Non-Parent Node Connection,BUILDING STORY 1 THERMALZONE VAV TERMINAL DAMPER OUTLET,AIRTERMINAL:SINGLEDUCT:VAV:REHEAT,BUILDING STORY 1 THERMALZONE VAV TERMINAL,Outlet,1
 Non-Parent Node Connection,BUILDING STORY 1 THERMALZONE VAV TERMINAL INLET AIR NODE,AIRTERMINAL:SINGLEDUCT:VAV:REHEAT,BUILDING STORY 1 THERMALZONE VAV TERMINAL,Inlet,1
 Non-Parent Node Connection,BUILDING STORY 1 THERMALZONE REHEAT COIL INLET WATER NODE,COIL:HEATING:WATER,BUILDING STORY 1 THERMALZONE REHEAT COIL,Inlet,2
 Non-Parent Node Connection,BUILDING STORY 1 THERMALZONE REHEAT COIL OUTLET WATER NODE,COIL:HEATING:WATER,BUILDING STORY 1 THERMALZONE REHEAT COIL,Outlet,2
 Non-Parent Node Connection,BUILDING STORY 1 THERMALZONE VAV TERMINAL DAMPER OUTLET,COIL:HEATING:WATER,BUILDING STORY 1 THERMALZONE REHEAT COIL,Inlet,1
 Non-Parent Node Connection,BUILDING STORY 1 THERMALZONE VAV TERMINAL OUTLET AIR NODE,COIL:HEATING:WATER,BUILDING STORY 1 THERMALZONE REHEAT COIL,Outlet,1
 Non-Parent Node Connection,BUILDING STORY 2 THERMALZONE REHEAT COIL INLET WATER NODE,COIL:HEATING:WATER,BUILDING STORY 2 THERMALZONE REHEAT COIL,Inlet,2
 Non-Parent Node Connection,BUILDING STORY 2 THERMALZONE REHEAT COIL OUTLET WATER NODE,COIL:HEATING:WATER,BUILDING STORY 2 THERMALZONE REHEAT COIL,Outlet,2
 Non-Parent Node Connection,BUILDING STORY 2 THERMALZONE VAV TERMINAL DAMPER OUTLET,COIL:HEATING:WATER,BUILDING STORY 2 THERMALZONE REHEAT COIL,Inlet,1
 Non-Parent Node Connection,BUILDING STORY 2 THERMALZONE VAV TERMINAL OUTLET AIR NODE,COIL:HEATING:WATER,BUILDING STORY 2 THERMALZONE REHEAT COIL,Outlet,1
 Non-Parent Node Connection,BUILDING STORY 3 THERMALZONE REHEAT COIL INLET WATER NODE,COIL:HEATING:WATER,BUILDING STORY 3 THERMALZONE REHEAT COIL,Inlet,2
 Non-Parent Node Connection,BUILDING STORY 3 THERMALZONE REHEAT COIL OUTLET WATER NODE,COIL:HEATING:WATER,BUILDING STORY 3 THERMALZONE REHEAT COIL,Outlet,2
 Non-Parent Node Connection,BUILDING STORY 3 THERMALZONE VAV TERMINAL DAMPER OUTLET,COIL:HEATING:WATER,BUILDING STORY 3 THERMALZONE REHEAT COIL,Inlet,1
 Non-Parent Node Connection,BUILDING STORY 3 THERMALZONE VAV TERMINAL OUTLET AIR NODE,COIL:HEATING:WATER,BUILDING STORY 3 THERMALZONE REHEAT COIL,Outlet,1
 Non-Parent Node Connection,1 ZONE PVAV MAIN HTG COIL INLET WATER NODE,COIL:HEATING:WATER,1 ZONE PVAV MAIN HTG COIL,Inlet,2
 Non-Parent Node Connection,1 ZONE PVAV MAIN HTG COIL OUTLET WATER NODE,COIL:HEATING:WATER,1 ZONE PVAV MAIN HTG COIL,Outlet,2
 Non-Parent Node Connection,1 ZONE PVAV 2SPD DX CLG COIL OUTLET AIR NODE,COIL:HEATING:WATER,1 ZONE PVAV MAIN HTG COIL,Inlet,1
 Non-Parent Node Connection,1 ZONE PVAV MAIN HTG COIL OUTLET AIR NODE,COIL:HEATING:WATER,1 ZONE PVAV MAIN HTG COIL,Outlet,1
 Non-Parent Node Connection,1 ZONE PVAV 1 MAIN HTG COIL INLET WATER NODE,COIL:HEATING:WATER,1 ZONE PVAV 1 MAIN HTG COIL,Inlet,2
 Non-Parent Node Connection,1 ZONE PVAV 1 MAIN HTG COIL OUTLET WATER NODE,COIL:HEATING:WATER,1 ZONE PVAV 1 MAIN HTG COIL,Outlet,2
 Non-Parent Node Connection,1 ZONE PVAV 1 2SPD DX CLG COIL OUTLET AIR NODE,COIL:HEATING:WATER,1 ZONE PVAV 1 MAIN HTG COIL,Inlet,1
 Non-Parent Node Connection,1 ZONE PVAV 1 MAIN HTG COIL OUTLET AIR NODE,COIL:HEATING:WATER,1 ZONE PVAV 1 MAIN HTG COIL,Outlet,1
 Non-Parent Node Connection,1 ZONE PVAV 2 MAIN HTG COIL INLET WATER NODE,COIL:HEATING:WATER,1 ZONE PVAV 2 MAIN HTG COIL,Inlet,2
 Non-Parent Node Connection,1 ZONE PVAV 2 MAIN HTG COIL OUTLET WATER NODE,COIL:HEATING:WATER,1 ZONE PVAV 2 MAIN HTG COIL,Outlet,2
 Non-Parent Node Connection,1 ZONE PVAV 2 2SPD DX CLG COIL OUTLET AIR NODE,COIL:HEATING:WATER,1 ZONE PVAV 2 MAIN HTG COIL,Inlet,1
 Non-Parent Node Connection,1 ZONE PVAV 2 MAIN HTG COIL OUTLET AIR NODE,COIL:HEATING:WATER,1 ZONE PVAV 2 MAIN HTG COIL,Outlet,1
 Non-Parent Node Connection,BUILDING STORY 2 THERMALZONE VAV TERMINAL DAMPER OUTLET,AIRTERMINAL:SINGLEDUCT:VAV:REHEAT,BUILDING STORY 2 THERMALZONE VAV TERMINAL,Outlet,1
 Non-Parent Node Connection,BUILDING STORY 2 THERMALZONE VAV TERMINAL INLET AIR NODE,AIRTERMINAL:SINGLEDUCT:VAV:REHEAT,BUILDING STORY 2 THERMALZONE VAV TERMINAL,Inlet,1
 Non-Parent Node Connection,BUILDING STORY 3 THERMALZONE VAV TERMINAL DAMPER OUTLET,AIRTERMINAL:SINGLEDUCT:VAV:REHEAT,BUILDING STORY 3 THERMALZONE VAV TERMINAL,Outlet,1
 Non-Parent Node Connection,BUILDING STORY 3 THERMALZONE VAV TERMINAL INLET AIR NODE,AIRTERMINAL:SINGLEDUCT:VAV:REHEAT,BUILDING STORY 3 THERMALZONE VAV TERMINAL,Inlet,1
 Non-Parent Node Connection,1 ZONE PVAV MAIN HTG COIL OUTLET AIR NODE,CONTROLLER:WATERCOIL,1 ZONE PVAV MAIN HTG COIL CONTROLLER,Sensor,1
 Non-Parent Node Connection,1 ZONE PVAV MAIN HTG COIL INLET WATER NODE,CONTROLLER:WATERCOIL,1 ZONE PVAV MAIN HTG COIL CONTROLLER,Actuator,1
 Non-Parent Node Connection,1 ZONE PVAV 1 MAIN HTG COIL OUTLET AIR NODE,CONTROLLER:WATERCOIL,1 ZONE PVAV 1 MAIN HTG COIL CONTROLLER,Sensor,1
 Non-Parent Node Connection,1 ZONE PVAV 1 MAIN HTG COIL INLET WATER NODE,CONTROLLER:WATERCOIL,1 ZONE PVAV 1 MAIN HTG COIL CONTROLLER,Actuator,1
 Non-Parent Node Connection,1 ZONE PVAV 2 MAIN HTG COIL OUTLET AIR NODE,CONTROLLER:WATERCOIL,1 ZONE PVAV 2 MAIN HTG COIL CONTROLLER,Sensor,1
 Non-Parent Node Connection,1 ZONE PVAV 2 MAIN HTG COIL INLET WATER NODE,CONTROLLER:WATERCOIL,1 ZONE PVAV 2 MAIN HTG COIL CONTROLLER,Actuator,1
 Non-Parent Node Connection,1 ZONE PVAV DEMAND OUTLET NODE,AIRLOOPHVAC:ZONEMIXER,AIR LOOP HVAC ZONE MIXER 1,Outlet,1
 Non-Parent Node Connection,BUILDING STORY 1 THERMALZONE RETURN AIR NODE,AIRLOOPHVAC:ZONEMIXER,AIR LOOP HVAC ZONE MIXER 1,Inlet,1
 Non-Parent Node Connection,1 ZONE PVAV 1 DEMAND OUTLET NODE,AIRLOOPHVAC:ZONEMIXER,AIR LOOP HVAC ZONE MIXER 2,Outlet,1
 Non-Parent Node Connection,BUILDING STORY 2 THERMALZONE RETURN AIR NODE,AIRLOOPHVAC:ZONEMIXER,AIR LOOP HVAC ZONE MIXER 2,Inlet,1
 Non-Parent Node Connection,1 ZONE PVAV 2 DEMAND OUTLET NODE,AIRLOOPHVAC:ZONEMIXER,AIR LOOP HVAC ZONE MIXER 3,Outlet,1
 Non-Parent Node Connection,BUILDING STORY 3 THERMALZONE RETURN AIR NODE,AIRLOOPHVAC:ZONEMIXER,AIR LOOP HVAC ZONE MIXER 3,Inlet,1
 Non-Parent Node Connection,1 ZONE PVAV MIXED AIR NODE,OUTDOORAIR:MIXER,1 ZONE PVAV OA SYSTEM OUTDOOR AIR MIXER,Outlet,1
 Non-Parent Node Connection,1 ZONE PVAV OUTDOOR AIR NODE,OUTDOORAIR:MIXER,1 ZONE PVAV OA SYSTEM OUTDOOR AIR MIXER,Inlet,1
 Non-Parent Node Connection,1 ZONE PVAV RELIEF AIR NODE,OUTDOORAIR:MIXER,1 ZONE PVAV OA SYSTEM OUTDOOR AIR MIXER,ReliefAir,1
 Non-Parent Node Connection,1 ZONE PVAV SUPPLY INLET NODE,OUTDOORAIR:MIXER,1 ZONE PVAV OA SYSTEM OUTDOOR AIR MIXER,Inlet,1
 Non-Parent Node Connection,1 ZONE PVAV 1 MIXED AIR NODE,OUTDOORAIR:MIXER,1 ZONE PVAV 1 OA SYSTEM OUTDOOR AIR MIXER,Outlet,1
 Non-Parent Node Connection,1 ZONE PVAV 1 OUTDOOR AIR NODE,OUTDOORAIR:MIXER,1 ZONE PVAV 1 OA SYSTEM OUTDOOR AIR MIXER,Inlet,1
 Non-Parent Node Connection,1 ZONE PVAV 1 RELIEF AIR NODE,OUTDOORAIR:MIXER,1 ZONE PVAV 1 OA SYSTEM OUTDOOR AIR MIXER,ReliefAir,1
 Non-Parent Node Connection,1 ZONE PVAV 1 SUPPLY INLET NODE,OUTDOORAIR:MIXER,1 ZONE PVAV 1 OA SYSTEM OUTDOOR AIR MIXER,Inlet,1
 Non-Parent Node Connection,1 ZONE PVAV 2 MIXED AIR NODE,OUTDOORAIR:MIXER,1 ZONE PVAV 2 OA SYSTEM OUTDOOR AIR MIXER,Outlet,1
 Non-Parent Node Connection,1 ZONE PVAV 2 OUTDOOR AIR NODE,OUTDOORAIR:MIXER,1 ZONE PVAV 2 OA SYSTEM OUTDOOR AIR MIXER,Inlet,1
 Non-Parent Node Connection,1 ZONE PVAV 2 RELIEF AIR NODE,OUTDOORAIR:MIXER,1 ZONE PVAV 2 OA SYSTEM OUTDOOR AIR MIXER,ReliefAir,1
 Non-Parent Node Connection,1 ZONE PVAV 2 SUPPLY INLET NODE,OUTDOORAIR:MIXER,1 ZONE PVAV 2 OA SYSTEM OUTDOOR AIR MIXER,Inlet,1
 Non-Parent Node Connection,1 ZONE PVAV MAIN HTG COIL OUTLET AIR NODE,FAN:VARIABLEVOLUME,1 ZONE PVAV FAN,Inlet,1
 Non-Parent Node Connection,1 ZONE PVAV SUPPLY OUTLET NODE,FAN:VARIABLEVOLUME,1 ZONE PVAV FAN,Outlet,1
 Non-Parent Node Connection,1 ZONE PVAV 1 MAIN HTG COIL OUTLET AIR NODE,FAN:VARIABLEVOLUME,1 ZONE PVAV 1 FAN,Inlet,1
 Non-Parent Node Connection,1 ZONE PVAV 1 SUPPLY OUTLET NODE,FAN:VARIABLEVOLUME,1 ZONE PVAV 1 FAN,Outlet,1
 Non-Parent Node Connection,1 ZONE PVAV 2 MAIN HTG COIL OUTLET AIR NODE,FAN:VARIABLEVOLUME,1 ZONE PVAV 2 FAN,Inlet,1
 Non-Parent Node Connection,1 ZONE PVAV 2 SUPPLY OUTLET NODE,FAN:VARIABLEVOLUME,1 ZONE PVAV 2 FAN,Outlet,1
 Non-Parent Node Connection,1 ZONE PVAV MIXED AIR NODE,CONTROLLER:OUTDOORAIR,CONTROLLER OUTDOOR AIR 1,Sensor,1
 Non-Parent Node Connection,1 ZONE PVAV OUTDOOR AIR NODE,CONTROLLER:OUTDOORAIR,CONTROLLER OUTDOOR AIR 1,Actuator,1
 Non-Parent Node Connection,1 ZONE PVAV RELIEF AIR NODE,CONTROLLER:OUTDOORAIR,CONTROLLER OUTDOOR AIR 1,Actuator,1
 Non-Parent Node Connection,1 ZONE PVAV SUPPLY INLET NODE,CONTROLLER:OUTDOORAIR,CONTROLLER OUTDOOR AIR 1,Sensor,1
 Non-Parent Node Connection,1 ZONE PVAV 1 MIXED AIR NODE,CONTROLLER:OUTDOORAIR,CONTROLLER OUTDOOR AIR 2,Sensor,1
 Non-Parent Node Connection,1 ZONE PVAV 1 OUTDOOR AIR NODE,CONTROLLER:OUTDOORAIR,CONTROLLER OUTDOOR AIR 2,Actuator,1
 Non-Parent Node Connection,1 ZONE PVAV 1 RELIEF AIR NODE,CONTROLLER:OUTDOORAIR,CONTROLLER OUTDOOR AIR 2,Actuator,1
 Non-Parent Node Connection,1 ZONE PVAV 1 SUPPLY INLET NODE,CONTROLLER:OUTDOORAIR,CONTROLLER OUTDOOR AIR 2,Sensor,1
 Non-Parent Node Connection,1 ZONE PVAV 2 MIXED AIR NODE,CONTROLLER:OUTDOORAIR,CONTROLLER OUTDOOR AIR 3,Sensor,1
 Non-Parent Node Connection,1 ZONE PVAV 2 OUTDOOR AIR NODE,CONTROLLER:OUTDOORAIR,CONTROLLER OUTDOOR AIR 3,Actuator,1
 Non-Parent Node Connection,1 ZONE PVAV 2 RELIEF AIR NODE,CONTROLLER:OUTDOORAIR,CONTROLLER OUTDOOR AIR 3,Actuator,1
 Non-Parent Node Connection,1 ZONE PVAV 2 SUPPLY INLET NODE,CONTROLLER:OUTDOORAIR,CONTROLLER OUTDOOR AIR 3,Sensor,1
 Non-Parent Node Connection,1 ZONE PVAV MIXED AIR NODE,COIL:COOLING:DX:TWOSPEED,1 ZONE PVAV 2SPD DX CLG COIL 2147KBTU/HR 9.5EER,Inlet,1
 Non-Parent Node Connection,1 ZONE PVAV 2SPD DX CLG COIL OUTLET AIR NODE,COIL:COOLING:DX:TWOSPEED,1 ZONE PVAV 2SPD DX CLG COIL 2147KBTU/HR 9.5EER,Outlet,1
 Non-Parent Node Connection,1 ZONE PVAV 1 MIXED AIR NODE,COIL:COOLING:DX:TWOSPEED,1 ZONE PVAV 1 2SPD DX CLG COIL 2587KBTU/HR 9.5EER,Inlet,1
 Non-Parent Node Connection,1 ZONE PVAV 1 2SPD DX CLG COIL OUTLET AIR NODE,COIL:COOLING:DX:TWOSPEED,1 ZONE PVAV 1 2SPD DX CLG COIL 2587KBTU/HR 9.5EER,Outlet,1
 Non-Parent Node Connection,1 ZONE PVAV 2 MIXED AIR NODE,COIL:COOLING:DX:TWOSPEED,1 ZONE PVAV 2 2SPD DX CLG COIL 2907KBTU/HR 9.5EER,Inlet,1
 Non-Parent Node Connection,1 ZONE PVAV 2 2SPD DX CLG COIL OUTLET AIR NODE,COIL:COOLING:DX:TWOSPEED,1 ZONE PVAV 2 2SPD DX CLG COIL 2907KBTU/HR 9.5EER,Outlet,1
 Non-Parent Node Connection,HX FOR BOOSTER WATER HEATING DEMAND INLET WATER NODE,HEATEXCHANGER:FLUIDTOFLUID,HX FOR BOOSTER WATER HEATING,Inlet,1
 Non-Parent Node Connection,MAINS WATER MAKEUP FOR SWH BOOSTER INLET WATER NODE,HEATEXCHANGER:FLUIDTOFLUID,HX FOR BOOSTER WATER HEATING,Outlet,1
 Non-Parent Node Connection,FULLSERVICERESTAURANT KITCHEN - 90.1-2013 SERVICE WATER BOOSTER LOOP SUPPLY INLET NODE,HEATEXCHANGER:FLUIDTOFLUID,HX FOR BOOSTER WATER HEATING,Inlet,2
 Non-Parent Node Connection,BOOSTER WATER LOOP PUMP INLET WATER NODE,HEATEXCHANGER:FLUIDTOFLUID,HX FOR BOOSTER WATER HEATING,Outlet,2
 Non-Parent Node Connection,FULLSERVICERESTAURANT KITCHEN - 90.1-2013 SERVICE WATER BOOSTER LOOP SUPPLY OUTLET NODE,HEATEXCHANGER:FLUIDTOFLUID,HX FOR BOOSTER WATER HEATING,Sensor,1
 Non-Parent Node Connection,MAINS WATER MAKEUP FOR SWH BOOSTER INLET WATER NODE,PLANTCOMPONENT:TEMPERATURESOURCE,MAINS WATER MAKEUP FOR SWH BOOSTER,Inlet,1
 Non-Parent Node Connection,MAINS WATER MAKEUP FOR SWH BOOSTER OUTLET WATER NODE,PLANTCOMPONENT:TEMPERATURESOURCE,MAINS WATER MAKEUP FOR SWH BOOSTER,Outlet,1
 Non-Parent Node Connection,BOILER INLET WATER NODE,BOILER:HOTWATER,BOILER 5275KBTU/HR 0.8 THERMAL EFF,Inlet,1
 Non-Parent Node Connection,BOILER OUTLET WATER NODE,BOILER:HOTWATER,BOILER 5275KBTU/HR 0.8 THERMAL EFF,Outlet,1
 Non-Parent Node Connection,BOOSTER WATER LOOP PUMP INLET WATER NODE,PUMP:VARIABLESPEED,BOOSTER WATER LOOP PUMP,Inlet,1
 Non-Parent Node Connection,BOOSTER WATER LOOP PUMP OUTLET WATER NODE,PUMP:VARIABLESPEED,BOOSTER WATER LOOP PUMP,Outlet,1
 Non-Parent Node Connection,FULLSERVICERESTAURANT KITCHEN - 90.1-2013 SERVICE WATER LOOP SUPPLY INLET NODE,PUMP:VARIABLESPEED,FULLSERVICERESTAURANT KITCHEN - 90.1-2013 SERVICE WATER LOOP WATER MAINS PRESSURE DRIVEN,Inlet,1
 Non-Parent Node Connection,FULLSERVICERESTAURANT KITCHEN - 90.1-2013 SERVICE WATER LOOP WATER MAINS PRESSURE DRIVEN OUTLET WATER NODE,PUMP:VARIABLESPEED,FULLSERVICERESTAURANT KITCHEN - 90.1-2013 SERVICE WATER LOOP WATER MAINS PRESSURE DRIVEN,Outlet,1
 Non-Parent Node Connection,HOT WATER LOOP SUPPLY INLET NODE,PUMP:VARIABLESPEED,HOT WATER LOOP PUMP,Inlet,1
 Non-Parent Node Connection,HOT WATER LOOP PUMP OUTLET WATER NODE,PUMP:VARIABLESPEED,HOT WATER LOOP PUMP,Outlet,1
