{
   "completed_at" : "20200325T001502Z",
   "completed_status" : "Success",
   "current_step" : 12,
   "description" : "Residential 1",
   "eplusout_err" : "Program Version,EnergyPlus, Version 9.1.0-fafb9d5652, YMD=2020.03.24 18:14,\n   ************* Beginning Zone Sizing Calculations\n   ** Warning ** ProcessScheduleInput: Schedule:Day:Interval=\"30 SPACE(S) OCC SCH DEFAULT\", Blank Schedule Type Limits Name input -- will not be validated.\n   ** Warning ** ProcessScheduleInput: Schedule:Day:Interval=\"30 SPACE(S) OCC SCH SATURDAY\", Blank Schedule Type Limits Name input -- will not be validated.\n   ** Warning ** ProcessScheduleInput: Schedule:Day:Interval=\"30 SPACE(S) OCC SCH SUMMER DESIGN DAY\", Blank Schedule Type Limits Name input -- will not be validated.\n   ** Warning ** ProcessScheduleInput: Schedule:Day:Interval=\"30 SPACE(S) OCC SCH SUNDAY\", Blank Schedule Type Limits Name input -- will not be validated.\n   ** Warning ** ProcessScheduleInput: Schedule:Day:Interval=\"30 SPACE(S) OCC SCH WINTER DESIGN DAY\", Blank Schedule Type Limits Name input -- will not be validated.\n   ** Warning ** ProcessScheduleInput: Schedule:Day:Interval=\"ECONOMIZER MAX OA FRACTION 70 PCT DEFAULT\", Blank Schedule Type Limits Name input -- will not be validated.\n   ** Warning ** ProcessScheduleInput: Schedule:Day:Interval=\"SCHEDULE DAY 1\", Blank Schedule Type Limits Name input -- will not be validated.\n   ** Warning ** ProcessScheduleInput: Schedule:Day:Interval=\"SCHEDULE DAY 2\", Blank Schedule Type Limits Name input -- will not be validated.\n   ** Warning ** ProcessScheduleInput: Schedule:Day:Interval=\"SCHEDULE DAY 3\", Blank Schedule Type Limits Name input -- will not be validated.\n   ** Warning ** ProcessScheduleInput: Schedule:Day:Interval=\"SCHEDULE DAY 4\", Blank Schedule Type Limits Name input -- will not be validated.\n   ** Warning ** ProcessScheduleInput: Schedule:Day:Interval=\"SCHEDULE DAY 5\", Blank Schedule Type Limits Name input -- will not be validated.\n   ** Warning ** ProcessScheduleInput: Schedule:Day:Interval=\"SCHEDULE DAY 6\", Blank Schedule Type Limits Name input -- will not be validated.\n   ** Warning ** ProcessScheduleInput: Schedule:Year=\"ECONOMIZER MAX OA FRACTION 70 PCT\", Blank Schedule Type Limits Name input -- will not be validated.\n   ** Warning ** ProcessScheduleInput: Schedule:Year=\"ELEVATOR SCHEDULE\", Blank Schedule Type Limits Name input -- will not be validated.\n   ** Warning ** ProcessScheduleInput: Schedule:Constant=\"ALWAYS OFF DISCRETE\", Blank Schedule Type Limits Name input -- will not be validated.\n   ** Warning ** ProcessScheduleInput: Schedule:Constant=\"ALWAYS ON CONTINUOUS\", Blank Schedule Type Limits Name input -- will not be validated.\n   ** Warning ** CheckUsedConstructions: There are 11 nominally unused constructions in input.\n   **   ~~~   ** For explicit details on each unused construction, use Output:Diagnostics,DisplayExtraWarnings;\n   ** Warning ** GetDaylightingControls: Fraction of Zone controlled by the Daylighting reference points is < 1.0.\n   **   ~~~   ** ..discovered in \"Daylighting:Controls\" for Zone=\"BUILDING STORY 1 THERMALZONE\", only 0.53 of the zone is controlled.\n   ** Warning ** GetDaylightingControls: Fraction of Zone controlled by the Daylighting reference points is < 1.0.\n   **   ~~~   ** ..discovered in \"Daylighting:Controls\" for Zone=\"BUILDING STORY 2 THERMALZONE\", only 0.40 of the zone is controlled.\n   ** Warning ** GetDaylightingControls: Fraction of Zone controlled by the Daylighting reference points is < 1.0.\n   **   ~~~   ** ..discovered in \"Daylighting:Controls\" for Zone=\"BUILDING STORY 3 THERMALZONE\", only 0.53 of the zone is controlled.\n   ************* Beginning System Sizing Calculations\n   ** Warning ** Since Zone Minimum Air Flow Input Method = CONSTANT, input for Fixed Minimum Air Flow Rate will be ignored.\n   **   ~~~   ** Occurs in AirTerminal:SingleDuct:VAV:Reheat = BUILDING STORY 1 THERMALZONE VAV TERMINAL\n   ** Warning ** Since Zone Minimum Air Flow Input Method = CONSTANT, input for Fixed Minimum Air Flow Rate will be ignored.\n   **   ~~~   ** Occurs in AirTerminal:SingleDuct:VAV:Reheat = BUILDING STORY 2 THERMALZONE VAV TERMINAL\n   ** Warning ** Since Zone Minimum Air Flow Input Method = CONSTANT, input for Fixed Minimum Air Flow Rate will be ignored.\n   **   ~~~   ** Occurs in AirTerminal:SingleDuct:VAV:Reheat = BUILDING STORY 3 THERMALZONE VAV TERMINAL\n   ************* Beginning Plant Sizing Calculations\n   ** Warning ** Controller:MechanicalVentilation=\"1 ZONE PVAV VENTILATION CONTROLLER\", Zone OA/person rate\n   **   ~~~   ** For Zone=\"BUILDING STORY 1 THERMALZONE\".\n   **   ~~~   ** Zone outside air per person rate not set in Design Specification Outdoor Air Object=\"BLENDED OA 2\".\n   ** Warning ** Controller:MechanicalVentilation=\"1 ZONE PVAV 1 VENTILATION CONTROLLER\", Zone OA/person rate\n   **   ~~~   ** For Zone=\"BUILDING STORY 2 THERMALZONE\".\n   **   ~~~   ** Zone outside air per person rate not set in Design Specification Outdoor Air Object=\"BLENDED OA 1\".\n   ** Warning ** Check input. Pump nominal power or motor efficiency is set to 0, for pump=BOOSTER WATER LOOP PUMP\n   ** Warning ** Missing temperature setpoint for LeavingSetpointModulated mode Boiler named BOILER 5275KBTU/HR 0.8 THERMAL EFF\n   **   ~~~   **   A temperature setpoint is needed at the outlet node of a boiler in variable flow mode\n   **   ~~~   **   use a Setpoint Manager to establish a setpoint at the boiler outlet node \n   **   ~~~   **   or use an EMS actuator to establish a setpoint at the boiler outlet node \n   **   ~~~   **   The overall loop setpoint will be assumed for Boiler. The simulation continues ... \n   ** Warning ** Output:Meter: invalid Key Name=\"HEATING:ADDITIONALFUEL\" - not found.\n   ** Warning ** Output:Meter: invalid Key Name=\"HEATING:DISTRICTCOOLING\" - not found.\n   ** Warning ** Output:Meter: invalid Key Name=\"HEATING:DISTRICTHEATING\" - not found.\n   ** Warning ** Output:Meter: invalid Key Name=\"HEATING:WATER\" - not found.\n   ** Warning ** Output:Meter: invalid Key Name=\"COOLING:GAS\" - not found.\n   ** Warning ** Output:Meter: invalid Key Name=\"COOLING:ADDITIONALFUEL\" - not found.\n   ** Warning ** Output:Meter: invalid Key Name=\"COOLING:DISTRICTCOOLING\" - not found.\n   ** Warning ** Output:Meter: invalid Key Name=\"COOLING:DISTRICTHEATING\" - not found.\n   ** Warning ** Output:Meter: invalid Key Name=\"COOLING:WATER\" - not found.\n   ** Warning ** Output:Meter: invalid Key Name=\"INTERIORLIGHTS:GAS\" - not found.\n   ** Warning ** Output:Meter: invalid Key Name=\"INTERIORLIGHTS:ADDITIONALFUEL\" - not found.\n   ** Warning ** Output:Meter: invalid Key Name=\"INTERIORLIGHTS:DISTRICTCOOLING\" - not found.\n   ** Warning ** Output:Meter: invalid Key Name=\"INTERIORLIGHTS:DISTRICTHEATING\" - not found.\n   ** Warning ** Output:Meter: invalid Key Name=\"INTERIORLIGHTS:WATER\" - not found.\n   ** Warning ** Output:Meter: invalid Key Name=\"EXTERIORLIGHTS:GAS\" - not found.\n   ** Warning ** Output:Meter: invalid Key Name=\"EXTERIORLIGHTS:ADDITIONALFUEL\" - not found.\n   ** Warning ** Output:Meter: invalid Key Name=\"EXTERIORLIGHTS:DISTRICTCOOLING\" - not found.\n   ** Warning ** Output:Meter: invalid Key Name=\"EXTERIORLIGHTS:DISTRICTHEATING\" - not found.\n   ** Warning ** Output:Meter: invalid Key Name=\"EXTERIORLIGHTS:WATER\" - not found.\n   ** Warning ** Output:Meter: invalid Key Name=\"INTERIOREQUIPMENT:ADDITIONALFUEL\" - not found.\n   ** Warning ** Output:Meter: invalid Key Name=\"INTERIOREQUIPMENT:DISTRICTCOOLING\" - not found.\n   ** Warning ** Output:Meter: invalid Key Name=\"INTERIOREQUIPMENT:DISTRICTHEATING\" - not found.\n   ** Warning ** Output:Meter: invalid Key Name=\"INTERIOREQUIPMENT:WATER\" - not found.\n   ** Warning ** Output:Meter: invalid Key Name=\"EXTERIOREQUIPMENT:ELECTRICITY\" - not found.\n   ** Warning ** Output:Meter: invalid Key Name=\"EXTERIOREQUIPMENT:GAS\" - not found.\n   ** Warning ** Output:Meter: invalid Key Name=\"EXTERIOREQUIPMENT:ADDITIONALFUEL\" - not found.\n   ** Warning ** Output:Meter: invalid Key Name=\"EXTERIOREQUIPMENT:DISTRICTCOOLING\" - not found.\n   ** Warning ** Output:Meter: invalid Key Name=\"EXTERIOREQUIPMENT:DISTRICTHEATING\" - not found.\n   ** Warning ** Output:Meter: invalid Key Name=\"EXTERIOREQUIPMENT:WATER\" - not found.\n   ** Warning ** Output:Meter: invalid Key Name=\"FANS:GAS\" - not found.\n   ** Warning ** Output:Meter: invalid Key Name=\"FANS:ADDITIONALFUEL\" - not found.\n   ** Warning ** Output:Meter: invalid Key Name=\"FANS:DISTRICTCOOLING\" - not found.\n   ** Warning ** Output:Meter: invalid Key Name=\"FANS:DISTRICTHEATING\" - not found.\n   ** Warning ** Output:Meter: invalid Key Name=\"FANS:WATER\" - not found.\n   ** Warning ** Output:Meter: invalid Key Name=\"PUMPS:GAS\" - not found.\n   ** Warning ** Output:Meter: invalid Key Name=\"PUMPS:ADDITIONALFUEL\" - not found.\n   ** Warning ** Output:Meter: invalid Key Name=\"PUMPS:DISTRICTCOOLING\" - not found.\n   ** Warning ** Output:Meter: invalid Key Name=\"PUMPS:DISTRICTHEATING\" - not found.\n   ** Warning ** Output:Meter: invalid Key Name=\"PUMPS:WATER\" - not found.\n   ** Warning ** Output:Meter: invalid Key Name=\"HEATREJECTION:ELECTRICITY\" - not found.\n   ** Warning ** Output:Meter: invalid Key Name=\"HEATREJECTION:GAS\" - not found.\n   ** Warning ** Output:Meter: invalid Key Name=\"HEATREJECTION:ADDITIONALFUEL\" - not found.\n   ** Warning ** Output:Meter: invalid Key Name=\"HEATREJECTION:DISTRICTCOOLING\" - not found.\n   ** Warning ** Output:Meter: invalid Key Name=\"HEATREJECTION:DISTRICTHEATING\" - not found.\n   ** Warning ** Output:Meter: invalid Key Name=\"HEATREJECTION:WATER\" - not found.\n   ** Warning ** Output:Meter: invalid Key Name=\"HUMIDIFIER:ELECTRICITY\" - not found.\n   ** Warning ** Output:Meter: invalid Key Name=\"HUMIDIFIER:GAS\" - not found.\n   ** Warning ** Output:Meter: invalid Key Name=\"HUMIDIFIER:ADDITIONALFUEL\" - not found.\n   ** Warning ** Output:Meter: invalid Key Name=\"HUMIDIFIER:DISTRICTCOOLING\" - not found.\n   ** Warning ** Output:Meter: invalid Key Name=\"HUMIDIFIER:DISTRICTHEATING\" - not found.\n   ** Warning ** Output:Meter: invalid Key Name=\"HUMIDIFIER:WATER\" - not found.\n   ** Warning ** Output:Meter: invalid Key Name=\"HEATRECOVERY:ELECTRICITY\" - not found.\n   ** Warning ** Output:Meter: invalid Key Name=\"HEATRECOVERY:GAS\" - not found.\n   ** Warning ** Output:Meter: invalid Key Name=\"HEATRECOVERY:ADDITIONALFUEL\" - not found.\n   ** Warning ** Output:Meter: invalid Key Name=\"HEATRECOVERY:DISTRICTCOOLING\" - not found.\n   ** Warning ** Output:Meter: invalid Key Name=\"HEATRECOVERY:DISTRICTHEATING\" - not found.\n   ** Warning ** Output:Meter: invalid Key Name=\"HEATRECOVERY:WATER\" - not found.\n   ** Warning ** Output:Meter: invalid Key Name=\"WATERSYSTEMS:ADDITIONALFUEL\" - not found.\n   ** Warning ** Output:Meter: invalid Key Name=\"WATERSYSTEMS:DISTRICTCOOLING\" - not found.\n   ** Warning ** Output:Meter: invalid Key Name=\"WATERSYSTEMS:DISTRICTHEATING\" - not found.\n   ** Warning ** Output:Meter: invalid Key Name=\"REFRIGERATION:ELECTRICITY\" - not found.\n   ** Warning ** Output:Meter: invalid Key Name=\"REFRIGERATION:GAS\" - not found.\n   ** Warning ** Output:Meter: invalid Key Name=\"REFRIGERATION:ADDITIONALFUEL\" - not found.\n   ** Warning ** Output:Meter: invalid Key Name=\"REFRIGERATION:DISTRICTCOOLING\" - not found.\n   ** Warning ** Output:Meter: invalid Key Name=\"REFRIGERATION:DISTRICTHEATING\" - not found.\n   ** Warning ** Output:Meter: invalid Key Name=\"REFRIGERATION:WATER\" - not found.\n   ** Warning ** Output:Meter: invalid Key Name=\"GENERATORS:ELECTRICITY\" - not found.\n   ** Warning ** Output:Meter: invalid Key Name=\"GENERATORS:GAS\" - not found.\n   ** Warning ** Output:Meter: invalid Key Name=\"GENERATORS:ADDITIONALFUEL\" - not found.\n   ** Warning ** Output:Meter: invalid Key Name=\"GENERATORS:DISTRICTCOOLING\" - not found.\n   ** Warning ** Output:Meter: invalid Key Name=\"GENERATORS:DISTRICTHEATING\" - not found.\n   ** Warning ** Output:Meter: invalid Key Name=\"GENERATORS:WATER\" - not found.\n   ** Warning ** Output:Meter: invalid Key Name=\"ADDITIONALFUEL:FACILITY\" - not found.\n   ** Warning ** Output:Meter: invalid Key Name=\"DISTRICTCOOLING:FACILITY\" - not found.\n   ** Warning ** Output:Meter: invalid Key Name=\"DISTRICTHEATING:FACILITY\" - not found.\n   ** Warning ** Output:Meter:MeterFileOnly requested for \"Electricity:Facility\" (TimeStep), already on \"Output:Meter\". Will report to both eplusout.eso and eplusout.mtr\n   ** Warning ** Output:Meter:MeterFileOnly: invalid Key Name=\"ELECTRICITYPRODUCED:FACILITY\" - not found.\n   ** Warning ** Output:Meter:MeterFileOnly requested for \"Gas:Facility\" (TimeStep), already on \"Output:Meter\". Will report to both eplusout.eso and eplusout.mtr\n   ** Warning ** Output:Meter:MeterFileOnly: invalid Key Name=\"DISTRICTCOOLING:FACILITY\" - not found.\n   ** Warning ** Output:Meter:MeterFileOnly: invalid Key Name=\"DISTRICTHEATING:FACILITY\" - not found.\n   ************* Testing Individual Branch Integrity\n   ************* All Branches passed integrity testing\n   ************* Testing Individual Supply Air Path Integrity\n   ************* All Supply Air Paths passed integrity testing\n   ************* Testing Individual Return Air Path Integrity\n   ************* All Return Air Paths passed integrity testing\n   ************* No node connection errors were found.\n   ************* Beginning Simulation\n   ** Warning ** Processing Monthly Tabular Reports: Variable names not valid for this simulation\n   **   ~~~   ** ...use Output:Diagnostics,DisplayExtraWarnings; to show more details on individual variables.\n   ** Warning ** The resource referenced by LifeCycleCost:UsePriceEscalation= \"U.S. AVG  COMMERCIAL-ELECTRICITY\" has no energy cost. \n   **   ~~~   ** ... It is likely that the wrong resource is used. The resource should match the meter used in Utility:Tariff.\n   ** Warning ** The resource referenced by LifeCycleCost:UsePriceEscalation= \"U.S. AVG  COMMERCIAL-DISTILLATE OIL\" has no energy cost. \n   **   ~~~   ** ... It is likely that the wrong resource is used. The resource should match the meter used in Utility:Tariff.\n   ** Warning ** The resource referenced by LifeCycleCost:UsePriceEscalation= \"U.S. AVG  COMMERCIAL-RESIDUAL OIL\" has no energy cost. \n   **   ~~~   ** ... It is likely that the wrong resource is used. The resource should match the meter used in Utility:Tariff.\n   ** Warning ** The resource referenced by LifeCycleCost:UsePriceEscalation= \"U.S. AVG  COMMERCIAL-NATURAL GAS\" has no energy cost. \n   **   ~~~   ** ... It is likely that the wrong resource is used. The resource should match the meter used in Utility:Tariff.\n   ** Warning ** The resource referenced by LifeCycleCost:UsePriceEscalation= \"U.S. AVG  COMMERCIAL-COAL\" has no energy cost. \n   **   ~~~   ** ... It is likely that the wrong resource is used. The resource should match the meter used in Utility:Tariff.\n   ************* Simulation Error Summary *************\n   ** Warning ** The following Report Variables were requested but not generated -- check.rdd file\n   **   ~~~   ** Either the IDF did not contain these elements, the variable name is misspelled,\n   **   ~~~   ** or the requested variable is an advanced output which requires Output : Diagnostics, DisplayAdvancedReportVariables;\n   ************* Key=*, VarName=FANGERPMV, Frequency=TimeStep\n   ************* Key=*, VarName=FANGERPPD, Frequency=TimeStep\n   ************* Key=*, VarName=TIME NOT COMFORTABLE SUMMER CLOTHES, Frequency=TimeStep\n   ************* Key=*, VarName=TIME NOT COMFORTABLE WINTER CLOTHES, Frequency=TimeStep\n   ************* Key=*, VarName=TIME NOT COMFORTABLE SUMMER OR WINTER CLOTHES, Frequency=TimeStep\n   ************* Key=*, VarName=DISTRICT COOLING CHILLED WATER RATE, Frequency=TimeStep\n   ************* Key=*, VarName=DISTRICT COOLING MASS FLOW RATE, Frequency=TimeStep\n   ************* Key=*, VarName=DISTRICT COOLING INLET TEMPERATURE, Frequency=TimeStep\n   ************* Key=*, VarName=DISTRICT COOLING OUTLET TEMPERATURE, Frequency=TimeStep\n   ************* Key=*, VarName=DISTRICT HEATING HOT WATER RATE, Frequency=TimeStep\n   ************* Key=*, VarName=DISTRICT HEATING MASS FLOW RATE, Frequency=TimeStep\n   ************* Key=*, VarName=DISTRICT HEATING INLET TEMPERATURE, Frequency=TimeStep\n   ************* Key=*, VarName=DISTRICT HEATING OUTLET TEMPERATURE, Frequency=TimeStep\n   ************* There are 7 unused schedules in input.\n   ************* There are 11 unused week schedules in input.\n   ************* There are 27 unused day schedules in input.\n   ************* Use Output:Diagnostics,DisplayUnusedSchedules; to see them.\n   *************\n   ************* ===== Final Error Summary =====\n   ************* The following error categories occurred.  Consider correcting or noting.\n   ************* Nominally Unused Constructions\n   ************* ..The nominally unused constructions warning is provided to alert you to potential conditions that can cause\n   ************* ..extra time during simulation. Each construction is calculated by the algorithm indicated in the HeatBalanceAlgorithm\n   ************* ..object. You may remove the constructions indicated (when you use the DisplayExtraWarnings option).\n   *************\n   ************* EnergyPlus Warmup Error Summary. During Warmup: 0 Warning; 0 Severe Errors.\n   ************* EnergyPlus Sizing Error Summary. During Sizing: 23 Warning; 0 Severe Errors.\n   ************* EnergyPlus Completed Successfully-- 114 Warning; 0 Severe Errors; Elapsed Time=00hr 00min  7.47sec\n",
   "file_paths" : [
      "/Users/tkwasnik/github/urbanopt-example-reopt-project/run/baseline_scenario/3/generated_files",
      "/Users/tkwasnik/github/urbanopt-example-reopt-project/mappers/../weather/",
      "/Users/tkwasnik/github/urbanopt-reopt-gem/lib/files",
      "/Users/tkwasnik/github/urbanopt-example-reopt-project/.bundle/install/ruby/2.2.0/gems/openstudio-extension-0.1.6/lib/files",
      "/Users/tkwasnik/github/urbanopt-example-reopt-project/.bundle/install/ruby/2.2.0/gems/openstudio-model-articulation-0.1.1/lib/files",
      "/Users/tkwasnik/github/urbanopt-example-reopt-project/.bundle/install/ruby/2.2.0/gems/openstudio-common-measures-0.1.2/lib/files",
      "/Users/tkwasnik/github/urbanopt-example-reopt-project/weather",
      "./files",
      "./weather",
      "../../files",
      "../../weather",
      "./"
   ],
   "hash" : "B53E3A67",
   "measure_paths" : [
      "/Users/tkwasnik/github/urbanopt-example-reopt-project/.bundle/install/ruby/2.2.0/bundler/gems/urbanopt-scenario-gem-57bae9849dea/lib/measures",
      "/Users/tkwasnik/github/urbanopt-example-reopt-project/.bundle/install/ruby/2.2.0/bundler/gems/urbanopt-geojson-gem-9106d015aa4a/lib/measures",
      "/Users/tkwasnik/github/urbanopt-reopt-gem/lib/measures",
      "/Users/tkwasnik/github/urbanopt-example-reopt-project/.bundle/install/ruby/2.2.0/gems/openstudio-extension-0.1.6/lib/measures",
      "/Users/tkwasnik/github/urbanopt-example-reopt-project/.bundle/install/ruby/2.2.0/gems/openstudio-model-articulation-0.1.1/lib/measures",
      "/Users/tkwasnik/github/urbanopt-example-reopt-project/.bundle/install/ruby/2.2.0/gems/openstudio-common-measures-0.1.2/lib/measures"
   ],
   "name" : "Residential 1",
   "run_directory" : "/Users/tkwasnik/github/urbanopt-example-reopt-project/run/baseline_scenario/3",
   "seed_file" : null,
   "started_at" : "20200325T001427Z",
   "steps" : [
      {
         "arguments" : {
            "begin_date" : "2019-06-01",
            "end_date" : "2019-08-01",
            "timesteps_per_hour" : 4
         },
         "measure_dir_name" : "set_run_period",
         "result" : {
            "completed_at" : "20200325T001427Z",
            "measure_class_name" : "SetRunPeriod",
            "measure_display_name" : "SetRunPeriod",
            "measure_name" : "set_run_period",
            "measure_taxonomy" : "Envelope.Form",
            "measure_type" : "ModelMeasure",
            "measure_uid" : "7a84292a-3975-4ab3-9284-6edabcbe750b",
            "measure_version_id" : "c3a54143-dcda-4280-850b-c26cd7260211",
            "measure_version_modified" : "20200229T024314Z",
            "measure_xml_checksum" : "2AF3A68E",
            "started_at" : "20200325T001427Z",
            "stderr" : "",
            "stdout" : "",
            "step_errors" : [],
            "step_files" : [],
            "step_info" : [],
            "step_result" : "Success",
            "step_values" : [
               {
                  "name" : "timesteps_per_hour",
                  "value" : 4
               },
               {
                  "name" : "begin_date",
                  "value" : "2019-06-01"
               },
               {
                  "name" : "end_date",
                  "value" : "2019-08-01"
               }
            ],
            "step_warnings" : []
         }
      },
      {
         "arguments" : {
            "__SKIP__" : false,
            "climate_zone" : "ASHRAE 169-2013-6A",
            "weather_file_name" : "USA_NY_Buffalo-Greater.Buffalo.Intl.AP.725280_TMY3.epw"
         },
         "measure_dir_name" : "ChangeBuildingLocation",
         "result" : {
            "completed_at" : "20200325T001427Z",
            "measure_class_name" : "ChangeBuildingLocation",
            "measure_display_name" : "ChangeBuildingLocation",
            "measure_name" : "change_building_location",
            "measure_taxonomy" : "Whole Building.Space Types",
            "measure_type" : "ModelMeasure",
            "measure_uid" : "d4db4971-f5ba-11e3-a3ac-0800200c9a66",
            "measure_version_id" : "ee75726e-6dad-4da9-9f64-a40f4e79bd92",
            "measure_version_modified" : "20200229T024319Z",
            "measure_xml_checksum" : "057E8D9D",
            "started_at" : "20200325T001427Z",
            "stderr" : "",
            "stdout" : "[openstudio.model.YearDescription] <1> 'UseWeatherFile' is not yet a supported option for YearDescription\n[openstudio.model.YearDescription] <1> 'UseWeatherFile' is not yet a supported option for YearDescription\n",
            "step_errors" : [],
            "step_files" : [],
            "step_final_condition" : "The final weather file is Buffalo Niagara Intl Ap and the model has 3 design day objects.",
            "step_info" : [
               "city is Buffalo Niagara Intl Ap. State is NY",
               "mean dry bulb is 8.966666666666667",
               "Adding object Buffalo Niagara Intl Ap Ann Clg .4% Condns DB=>MWB",
               "Adding object Buffalo Niagara Intl Ap Ann Clg .4% Condns WB=>MDB",
               "Adding object Buffalo Niagara Intl Ap Ann Htg 99.6% Condns DB",
               "Setting Climate Zone to 6A"
            ],
            "step_initial_condition" : "No weather file is set. The model has 0 design day objects",
            "step_result" : "Success",
            "step_values" : [
               {
                  "name" : "weather_file_name",
                  "value" : "USA_NY_Buffalo-Greater.Buffalo.Intl.AP.725280_TMY3.epw"
               },
               {
                  "name" : "climate_zone",
                  "value" : "ASHRAE 169-2013-6A"
               },
               {
                  "name" : "set_year",
                  "value" : 0
               },
               {
                  "name" : "use_upstream_args",
                  "value" : true
               },
               {
                  "name" : "epw_gsub",
                  "value" : "Do Nothing"
               },
               {
                  "name" : "reported_climate_zone",
                  "value" : "ASHRAE 169-2013-6A"
               }
            ],
            "step_warnings" : []
         }
      },
      {
         "arguments" : {
            "__SKIP__" : false,
            "bar_division_method" : "Multiple Space Types - Individual Stories Sliced",
            "bldg_type_a" : "FullServiceRestaurant",
            "bldg_type_a_num_units" : 0,
            "bldg_type_b" : "SmallOffice",
            "bldg_type_b_fract_bldg_area" : 0,
            "bldg_type_b_num_units" : 0,
            "bldg_type_c" : "SmallOffice",
            "bldg_type_c_fract_bldg_area" : 0,
            "bldg_type_c_num_units" : 0,
            "bldg_type_d" : "SmallOffice",
            "bldg_type_d_fract_bldg_area" : 0,
            "bldg_type_d_num_units" : 0,
            "building_rotation" : 0,
            "floor_height" : 10,
            "ns_to_ew_ratio" : 0,
            "num_stories_above_grade" : 3,
            "num_stories_below_grade" : 0,
            "party_wall_fraction" : 0,
            "single_floor_area" : 41877,
            "story_multiplier" : "None",
            "template" : "90.1-2013",
            "wwr" : 0
         },
         "measure_dir_name" : "create_bar_from_building_type_ratios",
         "result" : {
            "completed_at" : "20200325T001435Z",
            "measure_class_name" : "CreateBarFromBuildingTypeRatios",
            "measure_display_name" : "Create Bar From Building Type Ratios",
            "measure_name" : "create_bar_from_building_type_ratios",
            "measure_taxonomy" : "Envelope.Form",
            "measure_type" : "ModelMeasure",
            "measure_uid" : "6e3a14f8-c3c7-4e03-bc51-bef8a52e1a05",
            "measure_version_id" : "98068f42-8546-42bc-b4a5-6bfcd0e332d4",
            "measure_version_modified" : "20200229T024044Z",
            "measure_xml_checksum" : "2AF3A68E",
            "started_at" : "20200325T001431Z",
            "stderr" : "",
            "stdout" : "",
            "step_errors" : [],
            "step_files" : [],
            "step_final_condition" : "The building finished with 30 spaces.",
            "step_info" : [
               "Replacing argument named climate_zone from current measure with a value of ASHRAE 169-2013-6A from ChangeBuildingLocation.",
               "0.0 value for aspect ratio will be replaced with smart default for FullServiceRestaurant of 1.0.",
               "0.0 value for minimum perimeter multiplier will be replaced with smart default for FullServiceRestaurant of 1.0.",
               "0.0 value for window to wall ratio will be replaced with smart default for FullServiceRestaurant of 0.18.",
               "Creating Space Types for FullServiceRestaurant.",
               "Making bar with length of 205 ft and width of 205 ft",
               "Intersecting and matching surfaces in model, this will create additional geometry.",
               "Created bar envelope with floor area of 125,631 ft^2. Total building area is 125,631 ft^2."
            ],
            "step_initial_condition" : "The building started with 0 spaces.",
            "step_result" : "Success",
            "step_values" : [
               {
                  "name" : "bldg_type_a",
                  "value" : "FullServiceRestaurant"
               },
               {
                  "name" : "bldg_type_a_num_units",
                  "value" : 0
               },
               {
                  "name" : "bldg_type_b",
                  "value" : "SmallOffice"
               },
               {
                  "name" : "bldg_type_b_fract_bldg_area",
                  "value" : 0
               },
               {
                  "name" : "bldg_type_b_num_units",
                  "value" : 0
               },
               {
                  "name" : "bldg_type_c",
                  "value" : "SmallOffice"
               },
               {
                  "name" : "bldg_type_c_fract_bldg_area",
                  "value" : 0
               },
               {
                  "name" : "bldg_type_c_num_units",
                  "value" : 0
               },
               {
                  "name" : "bldg_type_d",
                  "value" : "SmallOffice"
               },
               {
                  "name" : "bldg_type_d_fract_bldg_area",
                  "value" : 0
               },
               {
                  "name" : "bldg_type_d_num_units",
                  "value" : 0
               },
               {
                  "name" : "total_bldg_floor_area",
                  "value" : 10000
               },
               {
                  "name" : "single_floor_area",
                  "value" : 41877
               },
               {
                  "name" : "floor_height",
                  "value" : 10
               },
               {
                  "name" : "custom_height_bar",
                  "value" : true
               },
               {
                  "name" : "num_stories_above_grade",
                  "value" : 3
               },
               {
                  "name" : "num_stories_below_grade",
                  "value" : 0
               },
               {
                  "name" : "building_rotation",
                  "value" : 0
               },
               {
                  "name" : "template",
                  "value" : "90.1-2013"
               },
               {
                  "name" : "ns_to_ew_ratio",
                  "value" : 0
               },
               {
                  "name" : "perim_mult",
                  "value" : 0
               },
               {
                  "name" : "bar_sep_dist_mult",
                  "value" : 10
               },
               {
                  "name" : "wwr",
                  "value" : 0
               },
               {
                  "name" : "party_wall_fraction",
                  "value" : 0
               },
               {
                  "name" : "party_wall_stories_north",
                  "value" : 0
               },
               {
                  "name" : "party_wall_stories_south",
                  "value" : 0
               },
               {
                  "name" : "party_wall_stories_east",
                  "value" : 0
               },
               {
                  "name" : "party_wall_stories_west",
                  "value" : 0
               },
               {
                  "name" : "bottom_story_ground_exposed_floor",
                  "value" : true
               },
               {
                  "name" : "top_story_exterior_exposed_roof",
                  "value" : true
               },
               {
                  "name" : "story_multiplier",
                  "value" : "None"
               },
               {
                  "name" : "make_mid_story_surfaces_adiabatic",
                  "value" : false
               },
               {
                  "name" : "bar_division_method",
                  "value" : "Multiple Space Types - Individual Stories Sliced"
               },
               {
                  "name" : "double_loaded_corridor",
                  "value" : "Primary Space Type"
               },
               {
                  "name" : "space_type_sort_logic",
                  "value" : "Building Type > Size"
               },
               {
                  "name" : "use_upstream_args",
                  "value" : true
               },
               {
                  "name" : "climate_zone",
                  "value" : "Lookup From Stat File"
               },
               {
                  "name" : "wall_area_ip",
                  "units" : "ft^2",
                  "value" : 24556.644721948513
               },
               {
                  "name" : "ns_wall_area_ip",
                  "units" : "ft^2",
                  "value" : 12278.322360974256
               },
               {
                  "name" : "ew_wall_area_ip",
                  "units" : "ft^2",
                  "value" : 12278.322360974256
               },
               {
                  "name" : "floor_area_to_perim_ratio",
                  "value" : 15.593469398437311
               },
               {
                  "name" : "bar_width",
                  "units" : "ft",
                  "value" : 204.63870601623731
               }
            ],
            "step_warnings" : [
               "User-defined single floor area was used for calculation of total building floor area",
               "Cannot use custom height bar with single floor area method, will not create custom height bar."
            ]
         }
      },
      {
         "arguments" : {
            "__SKIP__" : false,
            "add_hvac" : false,
            "add_refrigeration" : false,
            "template" : "90.1-2013"
         },
         "measure_dir_name" : "create_typical_building_from_model",
         "name" : "create_typical_building_from_model 1",
         "result" : {
            "completed_at" : "20200325T001438Z",
            "measure_class_name" : "CreateTypicalBuildingFromModel",
            "measure_display_name" : "Create Typical Building from Model",
            "measure_name" : "create_typical_building_from_model",
            "measure_taxonomy" : "Whole Building.Space Types",
            "measure_type" : "ModelMeasure",
            "measure_uid" : "339a2e3a-273c-4494-bb50-bfe586a0647c",
            "measure_version_id" : "41239158-445a-414c-a6f0-2fba3a7c696c",
            "measure_version_modified" : "20200229T024052Z",
            "measure_xml_checksum" : "EE13F09F",
            "started_at" : "20200325T001435Z",
            "stderr" : "",
            "stdout" : "",
            "step_errors" : [],
            "step_files" : [],
            "step_final_condition" : "The building finished with 1106 objects.",
            "step_info" : [
               "Replacing argument named climate_zone from current measure with a value of ASHRAE 169-2013-6A from ChangeBuildingLocation.",
               "Replacing argument named template from current measure with a value of 90.1-2013 from create_bar_from_building_type_ratios.",
               "Adding loads to space type named FullServiceRestaurant Dining - 90.1-2013",
               "Adding loads to space type named FullServiceRestaurant Kitchen - 90.1-2013",
               "Using climate zone ASHRAE 169-2013-6A from user arguments",
               "Adding default construction set named Res 90.1-2013 - FullSrvRest - ASHRAE 169-2013-6A",
               "Adding 9.0 elevators each with power of 16,055 (W), plus lights and fans.",
               "Adding Exterior Lights named Parking Areas and Drives Def (W/ft^2) with design level of 0.1 * 508,806.",
               "Adding Exterior Lights named Building Facades Def (W/ft^2) with design level of 0.15 * 8,186.",
               "Adding Exterior Lights named Main Entries Def (W/ft) with design level of 30.0 * 34.",
               "Adding Exterior Lights named Other Doors Def (W/ft) with design level of 20.0 * 50.",
               "Adding 1,601 (cfm) of exhaust to Zone FullServiceRestaurant Kitchen A  - Story Ground, with 1,495 (cfm) of makeup air from Zone FullServiceRestaurant Dining A  - Story Ground",
               "Adding 157 (cfm) of exhaust to Zone FullServiceRestaurant Kitchen A end_a - Story Ground",
               "Adding 18,640 (cfm) of exhaust to Zone FullServiceRestaurant Kitchen B  - Story Ground, with 17,404 (cfm) of makeup air from Zone FullServiceRestaurant Dining B  - Story Ground",
               "Adding 1,834 (cfm) of exhaust to Zone FullServiceRestaurant Kitchen B end_a - Story Ground",
               "Adding 1,601 (cfm) of exhaust to Zone FullServiceRestaurant Kitchen C  - Story Ground, with 1,495 (cfm) of makeup air from Zone FullServiceRestaurant Dining C  - Story Ground",
               "Adding 157 (cfm) of exhaust to Zone FullServiceRestaurant Kitchen C end_a - Story Ground",
               "Adding FullServiceRestaurant Kitchen - 90.1-2013 Service Water Loop to the building. It has 1 water use connections.",
               "Assigning FullServiceRestaurant Dining - 90.1-2013 Thermostat to thermal zones with FullServiceRestaurant Dining - 90.1-2013 assigned.",
               "Assigning FullServiceRestaurant Kitchen - 90.1-2013 Thermostat to thermal zones with FullServiceRestaurant Kitchen - 90.1-2013 assigned.",
               "Using OpenStudio Standards version 0.2.10 with template 90.1-2013.",
               "Loading OpenStudio Standards data for 90.1-2013",
               "FullServiceRestaurant Dining had no people, one has been created.",
               "FullServiceRestaurant Dining set occupancy to 70.0 people/1000 ft^2.",
               "FullServiceRestaurant Dining had no lights, one has been created.",
               "FullServiceRestaurant Dining set LPD to 0.89 W/ft^2.",
               "FullServiceRestaurant Dining had no electric equipment, one has been created.",
               "FullServiceRestaurant Dining set electric EPD to 6.032 W/ft^2.",
               "FullServiceRestaurant Dining had no ventilation specification, one has been created.",
               "FullServiceRestaurant Dining set ventilation per area to 0.18 cfm/ft^2.",
               "FullServiceRestaurant Dining set ventilation per person to 7.5 cfm/person.",
               "FullServiceRestaurant Dining set occupancy schedule to RestaurantSitDown BLDG_OCC_SCH.",
               "FullServiceRestaurant Dining set occupant activity schedule to RestaurantSitDown ACTIVITY_SCH.",
               "FullServiceRestaurant Dining set lighting schedule to RestaurantSitDown BLDG_LIGHT_DINING_SCH_2013.",
               "FullServiceRestaurant Dining set electric equipment schedule to RestaurantSitDown BLDG_EQUIP_SCH.",
               "FullServiceRestaurant Dining set infiltration schedule to RestaurantSitDown INFIL_HALF_ON_SCH.",
               "FullServiceRestaurant Kitchen had no people, one has been created.",
               "FullServiceRestaurant Kitchen set occupancy to 5.0 people/1000 ft^2.",
               "FullServiceRestaurant Kitchen had no lights, one has been created.",
               "FullServiceRestaurant Kitchen set LPD to 1.21 W/ft^2.",
               "FullServiceRestaurant Kitchen had no electric equipment, one has been created.",
               "FullServiceRestaurant Kitchen set electric EPD to 37.53 W/ft^2.",
               "FullServiceRestaurant Kitchen had no gas equipment, one has been created.",
               "FullServiceRestaurant Kitchen set gas EPD to 205.81 Btu/hr*ft^2.",
               "FullServiceRestaurant Kitchen had no ventilation specification, one has been created.",
               "FullServiceRestaurant Kitchen set ventilation per area to 0.18 cfm/ft^2.",
               "FullServiceRestaurant Kitchen set ventilation per person to 7.5 cfm/person.",
               "FullServiceRestaurant Kitchen set occupancy schedule to RestaurantSitDown BLDG_OCC_SCH.",
               "FullServiceRestaurant Kitchen set occupant activity schedule to RestaurantSitDown ACTIVITY_SCH.",
               "FullServiceRestaurant Kitchen set lighting schedule to RestaurantSitDown BLDG_LIGHT_KITCHEN_SCH_2010_2013.",
               "FullServiceRestaurant Kitchen set electric equipment schedule to RestaurantSitDown BLDG_EQUIP_SCH.",
               "FullServiceRestaurant Kitchen set gas equipment schedule to RestaurantSitDown Rest_GAS_EQUIP_SCH.",
               "FullServiceRestaurant Kitchen set infiltration schedule to RestaurantSitDown INFIL_HALF_ON_SCH.",
               "Adding construction set: 90.1-2013-ASHRAE 169-2013-6A-FullServiceRestaurant--is_residentialNo",
               "Adding construction Typical Insulated Exterior Mass Floor R-19.61.",
               "Adding construction Typical Insulated Steel Framed Exterior Wall R-20.41.",
               "Adding construction Typical Wood Joist Attic Floor R-47.62.",
               "Adding construction Typical Interior Floor.",
               "Adding construction Typical Interior Wall.",
               "Adding construction Typical Interior Ceiling.",
               "Adding construction Typical Insulated Carpeted 8in Slab Floor.",
               "Adding construction Typical Insulated Basement Mass Wall.",
               "Adding construction U 0.48 SHGC 0.40 Dbl Ref-D Clr 6mm/13mm.",
               "Adding construction Typical Insulated Metal Door R-2.0.",
               "Adding construction U 0.44 SHGC 0.26 Dbl Ref-B-H Clr 6mm/13mm Air.",
               "Adding construction Typical Overhead Door R-2.0.",
               "Adding construction Window_U_0.50_SHGC_0.40_Skylight_Frame_Width_0.430_in.",
               "Adding construction Typical Interior Window.",
               "Adding construction Typical Interior Door.",
               "Adding construction Typical Interior Partition.",
               "For FullServiceRestaurant Dining A  - Story Ground, set infiltration rate to 0.112 cfm/ft2 exterior wall area (aka 1.0 cfm/ft2 @75Pa).",
               "For FullServiceRestaurant Dining A  - Story Mid, set infiltration rate to 0.112 cfm/ft2 exterior wall area (aka 1.0 cfm/ft2 @75Pa).",
               "For FullServiceRestaurant Dining A  - Story Top, set infiltration rate to 0.112 cfm/ft2 exterior wall area (aka 1.0 cfm/ft2 @75Pa).",
               "For FullServiceRestaurant Dining A end_a - Story Mid, set infiltration rate to 0.112 cfm/ft2 exterior wall area (aka 1.0 cfm/ft2 @75Pa).",
               "For FullServiceRestaurant Dining A end_a - Story Top, set infiltration rate to 0.112 cfm/ft2 exterior wall area (aka 1.0 cfm/ft2 @75Pa).",
               "For FullServiceRestaurant Dining A end_b - Story Ground, set infiltration rate to 0.112 cfm/ft2 exterior wall area (aka 1.0 cfm/ft2 @75Pa).",
               "For FullServiceRestaurant Dining A end_b - Story Mid, set infiltration rate to 0.112 cfm/ft2 exterior wall area (aka 1.0 cfm/ft2 @75Pa).",
               "For FullServiceRestaurant Dining A end_b - Story Top, set infiltration rate to 0.112 cfm/ft2 exterior wall area (aka 1.0 cfm/ft2 @75Pa).",
               "For FullServiceRestaurant Dining B  - Story Ground, no exterior wall area was found, no infiltration will be added.",
               "For FullServiceRestaurant Dining B  - Story Mid, no exterior wall area was found, no infiltration will be added.",
               "For FullServiceRestaurant Dining B  - Story Top, no exterior wall area was found, no infiltration will be added.",
               "For FullServiceRestaurant Dining B end_a - Story Mid, set infiltration rate to 0.112 cfm/ft2 exterior wall area (aka 1.0 cfm/ft2 @75Pa).",
               "For FullServiceRestaurant Dining B end_a - Story Top, set infiltration rate to 0.112 cfm/ft2 exterior wall area (aka 1.0 cfm/ft2 @75Pa).",
               "For FullServiceRestaurant Dining B end_b - Story Ground, set infiltration rate to 0.112 cfm/ft2 exterior wall area (aka 1.0 cfm/ft2 @75Pa).",
               "For FullServiceRestaurant Dining B end_b - Story Mid, set infiltration rate to 0.112 cfm/ft2 exterior wall area (aka 1.0 cfm/ft2 @75Pa).",
               "For FullServiceRestaurant Dining B end_b - Story Top, set infiltration rate to 0.112 cfm/ft2 exterior wall area (aka 1.0 cfm/ft2 @75Pa).",
               "For FullServiceRestaurant Dining C  - Story Ground, set infiltration rate to 0.112 cfm/ft2 exterior wall area (aka 1.0 cfm/ft2 @75Pa).",
               "For FullServiceRestaurant Dining C  - Story Mid, set infiltration rate to 0.112 cfm/ft2 exterior wall area (aka 1.0 cfm/ft2 @75Pa).",
               "For FullServiceRestaurant Dining C  - Story Top, set infiltration rate to 0.112 cfm/ft2 exterior wall area (aka 1.0 cfm/ft2 @75Pa).",
               "For FullServiceRestaurant Dining C end_a - Story Mid, set infiltration rate to 0.112 cfm/ft2 exterior wall area (aka 1.0 cfm/ft2 @75Pa).",
               "For FullServiceRestaurant Dining C end_a - Story Top, set infiltration rate to 0.112 cfm/ft2 exterior wall area (aka 1.0 cfm/ft2 @75Pa).",
               "For FullServiceRestaurant Dining C end_b - Story Ground, set infiltration rate to 0.112 cfm/ft2 exterior wall area (aka 1.0 cfm/ft2 @75Pa).",
               "For FullServiceRestaurant Dining C end_b - Story Mid, set infiltration rate to 0.112 cfm/ft2 exterior wall area (aka 1.0 cfm/ft2 @75Pa).",
               "For FullServiceRestaurant Dining C end_b - Story Top, set infiltration rate to 0.112 cfm/ft2 exterior wall area (aka 1.0 cfm/ft2 @75Pa).",
               "For FullServiceRestaurant Kitchen A  - Story Ground, set infiltration rate to 0.112 cfm/ft2 exterior wall area (aka 1.0 cfm/ft2 @75Pa).",
               "For FullServiceRestaurant Kitchen A end_a - Story Ground, set infiltration rate to 0.112 cfm/ft2 exterior wall area (aka 1.0 cfm/ft2 @75Pa).",
               "For FullServiceRestaurant Kitchen B  - Story Ground, no exterior wall area was found, no infiltration will be added.",
               "For FullServiceRestaurant Kitchen B end_a - Story Ground, set infiltration rate to 0.112 cfm/ft2 exterior wall area (aka 1.0 cfm/ft2 @75Pa).",
               "For FullServiceRestaurant Kitchen C  - Story Ground, set infiltration rate to 0.112 cfm/ft2 exterior wall area (aka 1.0 cfm/ft2 @75Pa).",
               "For FullServiceRestaurant Kitchen C end_a - Story Ground, set infiltration rate to 0.112 cfm/ft2 exterior wall area (aka 1.0 cfm/ft2 @75Pa).",
               "The building has fewer than 6 effective stories; assuming Hydraulic elevators.",
               "For FullServiceRestaurant Dining - 90.1-2013, floor area = 91359 ft^2.",
               "For FullServiceRestaurant Dining - 90.1-2013, number of spaces = 24.",
               "For FullServiceRestaurant Dining - 90.1-2013, number of people = 6395.",
               "For FullServiceRestaurant Kitchen - 90.1-2013, floor area = 34272 ft^2.",
               "For FullServiceRestaurant Kitchen - 90.1-2013, number of spaces = 6.",
               "For FullServiceRestaurant Kitchen - 90.1-2013, number of people = 171.",
               "For FullServiceRestaurant Dining - 90.1-2013, adding 6.1 passenger elevators at 1 per 15000.0 ft^2.",
               "Unexpected key, can't calculate number of freight elevators from template.",
               "For FullServiceRestaurant Kitchen - 90.1-2013, adding 2.3 passenger elevators at 1 per 15000.0 ft^2.",
               "Unexpected key, can't calculate number of freight elevators from template.",
               "No additional passenger elevators added to model.",
               "Adding 9.0 Hydraulic elevators to the model in FullServiceRestaurant Kitchen B  - Story Ground.",
               "For FullServiceRestaurant Dining - 90.1-2013, floor area = 91359 ft^2.",
               "For FullServiceRestaurant Dining - 90.1-2013, number of spaces = 24.",
               "For FullServiceRestaurant Dining - 90.1-2013, number of people = 6395.",
               "For FullServiceRestaurant Kitchen - 90.1-2013, floor area = 34272 ft^2.",
               "For FullServiceRestaurant Kitchen - 90.1-2013, number of spaces = 6.",
               "For FullServiceRestaurant Kitchen - 90.1-2013, number of people = 171.",
               "Facade and Landscape exterior lights shut off from {:hr=>24, :min=>0} to {:hr=>6, :min=>0}",
               "Non Facade and Landscape lights reduce by 30.0 % from {:hr=>24, :min=>0} to {:hr=>6, :min=>0}",
               "Added 0.1 W/ft^2 of lighting for 508805.5500000016 ft^2 of parking area.",
               "Added 0.15 W/ft^2 of lighting for 8185.548240649503 ft^2 of building facade area.",
               "Added 30.0 W/ft of lighting for 33.50160000000011 ft of main entry length.",
               "Added 20.0 W/ft of lighting for 50.252400000000165 ft of other doors.",
               "For Prototype: Zone FullServiceRestaurant Kitchen A  - Story Ground Exhaust Fan: Pressure Rise = 0.5in w.c.",
               "For Zone FullServiceRestaurant Kitchen A  - Story Ground Exhaust Fan: allowed_hp = 0.25HP; motor eff = 70.0%; total fan eff = 39% based on 1601 cfm.",
               "For Prototype: Zone FullServiceRestaurant Kitchen A end_a - Story Ground Exhaust Fan: Pressure Rise = 0.5in w.c.",
               "For Zone FullServiceRestaurant Kitchen A end_a - Story Ground Exhaust Fan: allowed_hp = 0.02HP; motor eff = 70.0%; total fan eff = 39% based on 157 cfm.",
               "For Prototype: Zone FullServiceRestaurant Kitchen B  - Story Ground Exhaust Fan: Pressure Rise = 0.5in w.c.",
               "For Zone FullServiceRestaurant Kitchen B  - Story Ground Exhaust Fan: allowed_hp = 2.93HP; motor eff = 70.0%; total fan eff = 39% based on 18640 cfm.",
               "For Prototype: Zone FullServiceRestaurant Kitchen B end_a - Story Ground Exhaust Fan: Pressure Rise = 0.5in w.c.",
               "For Zone FullServiceRestaurant Kitchen B end_a - Story Ground Exhaust Fan: allowed_hp = 0.29HP; motor eff = 70.0%; total fan eff = 39% based on 1834 cfm.",
               "For Prototype: Zone FullServiceRestaurant Kitchen C  - Story Ground Exhaust Fan: Pressure Rise = 0.5in w.c.",
               "For Zone FullServiceRestaurant Kitchen C  - Story Ground Exhaust Fan: allowed_hp = 0.25HP; motor eff = 70.0%; total fan eff = 39% based on 1601 cfm.",
               "For Prototype: Zone FullServiceRestaurant Kitchen C end_a - Story Ground Exhaust Fan: Pressure Rise = 0.5in w.c.",
               "For Zone FullServiceRestaurant Kitchen C end_a - Story Ground Exhaust Fan: allowed_hp = 0.02HP; motor eff = 70.0%; total fan eff = 39% based on 157 cfm.",
               "For FullServiceRestaurant Dining - 90.1-2013, floor area = 91359 ft^2.",
               "For FullServiceRestaurant Dining - 90.1-2013, number of spaces = 24.",
               "For FullServiceRestaurant Dining - 90.1-2013, number of people = 6395.",
               "For FullServiceRestaurant Kitchen - 90.1-2013, floor area = 34272 ft^2.",
               "For FullServiceRestaurant Kitchen - 90.1-2013, number of spaces = 6.",
               "For FullServiceRestaurant Kitchen - 90.1-2013, number of people = 171.",
               "Added Booster FullServiceRestaurant Kitchen - 90.1-2013 Service Water Use 30.37gpm at 180F.",
               "Added FullServiceRestaurant Kitchen - 90.1-2013 Service Water Use 20.25gpm at 140F.",
               "Capacity of 1913166 Btu/hr = 1.0 peak fraction * 1822 gal/hr * 8.4 lb/gal * 1.0 Btu/lb F * (140 - 40 deltaF / 0.8 htg eff).",
               "Added water heater called 1913gal NaturalGas Water Heater - 1913kBtu/hr",
               "Pipe length 20ft. For non-circulating systems, assume water heater is close to point of use.",
               "Added 20ft of Uninsulated copper pipe 0.75in type L losing heat to 70F air to FullServiceRestaurant Kitchen - 90.1-2013 Service Water Loop.",
               "Added non-circulating SWH loop called FullServiceRestaurant Kitchen - 90.1-2013 Service Water Loop",
               "Capacity of 367328 Btu/hr = 1.0 peak fraction * 1093 gal/hr * 8.4 lb/gal * 1.0 Btu/lb F * (180 - 140 deltaF / 1.0 htg eff).",
               "Adding booster water heater to FullServiceRestaurant Kitchen - 90.1-2013 Service Water Loop",
               "Started adding daylighting controls.",
               "For FullServiceRestaurant Dining A  - Story Ground, primary sidelighting control not required because less than 150W of lighting are present in the primary daylighted area per 9.4.1.1(e).",
               "For FullServiceRestaurant Dining A  - Story Ground, secondary sidelighting control not required because less than 300W of lighting are present in the combined primary and secondary daylighted areas per 9.4.1.1(e).",
               "For FullServiceRestaurant Dining A  - Story Mid: illuminance setpoint = 300.0 Lux",
               "For FullServiceRestaurant Dining A  - Story Mid: sensor 1 controls 29% of the zone lighting.",
               "For FullServiceRestaurant Dining A  - Story Mid: sensor 2 controls 29% of the zone lighting.",
               "For FullServiceRestaurant Dining A  - Story Top: illuminance setpoint = 300.0 Lux",
               "For FullServiceRestaurant Dining A  - Story Top: sensor 1 controls 29% of the zone lighting.",
               "For FullServiceRestaurant Dining A  - Story Top: sensor 2 controls 29% of the zone lighting.",
               "For FullServiceRestaurant Dining A end_a - Story Mid, primary sidelighting control not required because less than 150W of lighting are present in the primary daylighted area per 9.4.1.1(e).",
               "For FullServiceRestaurant Dining A end_a - Story Mid, secondary sidelighting control not required because less than 300W of lighting are present in the combined primary and secondary daylighted areas per 9.4.1.1(e).",
               "For FullServiceRestaurant Dining A end_a - Story Top, primary sidelighting control not required because less than 150W of lighting are present in the primary daylighted area per 9.4.1.1(e).",
               "For FullServiceRestaurant Dining A end_a - Story Top, secondary sidelighting control not required because less than 300W of lighting are present in the combined primary and secondary daylighted areas per 9.4.1.1(e).",
               "For FullServiceRestaurant Dining A end_b - Story Ground, primary sidelighting control not required because less than 150W of lighting are present in the primary daylighted area per 9.4.1.1(e).",
               "For FullServiceRestaurant Dining A end_b - Story Ground, secondary sidelighting control not required because less than 300W of lighting are present in the combined primary and secondary daylighted areas per 9.4.1.1(e).",
               "For FullServiceRestaurant Dining A end_b - Story Mid, primary sidelighting control not required because less than 150W of lighting are present in the primary daylighted area per 9.4.1.1(e).",
               "For FullServiceRestaurant Dining A end_b - Story Mid, secondary sidelighting control not required because less than 300W of lighting are present in the combined primary and secondary daylighted areas per 9.4.1.1(e).",
               "For FullServiceRestaurant Dining A end_b - Story Top, primary sidelighting control not required because less than 150W of lighting are present in the primary daylighted area per 9.4.1.1(e).",
               "For FullServiceRestaurant Dining A end_b - Story Top, secondary sidelighting control not required because less than 300W of lighting are present in the combined primary and secondary daylighted areas per 9.4.1.1(e).",
               "For FullServiceRestaurant Dining B  - Story Ground, daylighting control not applicable because no exterior fenestration is present.",
               "For FullServiceRestaurant Dining B  - Story Mid, daylighting control not applicable because no exterior fenestration is present.",
               "For FullServiceRestaurant Dining B  - Story Top, daylighting control not applicable because no exterior fenestration is present.",
               "For FullServiceRestaurant Dining B end_a - Story Mid: illuminance setpoint = 300.0 Lux",
               "For FullServiceRestaurant Dining B end_a - Story Mid: sensor 1 controls 29% of the zone lighting.",
               "For FullServiceRestaurant Dining B end_a - Story Mid: sensor 2 controls 29% of the zone lighting.",
               "For FullServiceRestaurant Dining B end_a - Story Top: illuminance setpoint = 300.0 Lux",
               "For FullServiceRestaurant Dining B end_a - Story Top: sensor 1 controls 29% of the zone lighting.",
               "For FullServiceRestaurant Dining B end_a - Story Top: sensor 2 controls 29% of the zone lighting.",
               "For FullServiceRestaurant Dining B end_b - Story Ground: illuminance setpoint = 300.0 Lux",
               "For FullServiceRestaurant Dining B end_b - Story Ground: sensor 1 controls 29% of the zone lighting.",
               "For FullServiceRestaurant Dining B end_b - Story Ground: sensor 2 controls 29% of the zone lighting.",
               "For FullServiceRestaurant Dining B end_b - Story Mid: illuminance setpoint = 300.0 Lux",
               "For FullServiceRestaurant Dining B end_b - Story Mid: sensor 1 controls 29% of the zone lighting.",
               "For FullServiceRestaurant Dining B end_b - Story Mid: sensor 2 controls 29% of the zone lighting.",
               "For FullServiceRestaurant Dining B end_b - Story Top: illuminance setpoint = 300.0 Lux",
               "For FullServiceRestaurant Dining B end_b - Story Top: sensor 1 controls 29% of the zone lighting.",
               "For FullServiceRestaurant Dining B end_b - Story Top: sensor 2 controls 29% of the zone lighting.",
               "For FullServiceRestaurant Dining C  - Story Ground, primary sidelighting control not required because less than 150W of lighting are present in the primary daylighted area per 9.4.1.1(e).",
               "For FullServiceRestaurant Dining C  - Story Ground, secondary sidelighting control not required because less than 300W of lighting are present in the combined primary and secondary daylighted areas per 9.4.1.1(e).",
               "For FullServiceRestaurant Dining C  - Story Mid: illuminance setpoint = 300.0 Lux",
               "For FullServiceRestaurant Dining C  - Story Mid: sensor 1 controls 29% of the zone lighting.",
               "For FullServiceRestaurant Dining C  - Story Mid: sensor 2 controls 29% of the zone lighting.",
               "For FullServiceRestaurant Dining C  - Story Top: illuminance setpoint = 300.0 Lux",
               "For FullServiceRestaurant Dining C  - Story Top: sensor 1 controls 29% of the zone lighting.",
               "For FullServiceRestaurant Dining C  - Story Top: sensor 2 controls 29% of the zone lighting.",
               "For FullServiceRestaurant Dining C end_a - Story Mid, primary sidelighting control not required because less than 150W of lighting are present in the primary daylighted area per 9.4.1.1(e).",
               "For FullServiceRestaurant Dining C end_a - Story Mid, secondary sidelighting control not required because less than 300W of lighting are present in the combined primary and secondary daylighted areas per 9.4.1.1(e).",
               "For FullServiceRestaurant Dining C end_a - Story Top, primary sidelighting control not required because less than 150W of lighting are present in the primary daylighted area per 9.4.1.1(e).",
               "For FullServiceRestaurant Dining C end_a - Story Top, secondary sidelighting control not required because less than 300W of lighting are present in the combined primary and secondary daylighted areas per 9.4.1.1(e).",
               "For FullServiceRestaurant Dining C end_b - Story Ground, primary sidelighting control not required because less than 150W of lighting are present in the primary daylighted area per 9.4.1.1(e).",
               "For FullServiceRestaurant Dining C end_b - Story Ground, secondary sidelighting control not required because less than 300W of lighting are present in the combined primary and secondary daylighted areas per 9.4.1.1(e).",
               "For FullServiceRestaurant Dining C end_b - Story Mid, primary sidelighting control not required because less than 150W of lighting are present in the primary daylighted area per 9.4.1.1(e).",
               "For FullServiceRestaurant Dining C end_b - Story Mid, secondary sidelighting control not required because less than 300W of lighting are present in the combined primary and secondary daylighted areas per 9.4.1.1(e).",
               "For FullServiceRestaurant Dining C end_b - Story Top, primary sidelighting control not required because less than 150W of lighting are present in the primary daylighted area per 9.4.1.1(e).",
               "For FullServiceRestaurant Dining C end_b - Story Top, secondary sidelighting control not required because less than 300W of lighting are present in the combined primary and secondary daylighted areas per 9.4.1.1(e).",
               "For FullServiceRestaurant Kitchen A  - Story Ground: no specific illuminance setpoint defined for 90.1-2013 FullServiceRestaurant Kitchen, assuming 375 Lux.",
               "For FullServiceRestaurant Kitchen A  - Story Ground: sensor 1 controls 29% of the zone lighting.",
               "For FullServiceRestaurant Kitchen A  - Story Ground: sensor 2 controls 29% of the zone lighting.",
               "For FullServiceRestaurant Kitchen A end_a - Story Ground, primary sidelighting control not required because less than 150W of lighting are present in the primary daylighted area per 9.4.1.1(e).",
               "For FullServiceRestaurant Kitchen A end_a - Story Ground, secondary sidelighting control not required because less than 300W of lighting are present in the combined primary and secondary daylighted areas per 9.4.1.1(e).",
               "For FullServiceRestaurant Kitchen B  - Story Ground, daylighting control not applicable because no exterior fenestration is present.",
               "For FullServiceRestaurant Kitchen B end_a - Story Ground: no specific illuminance setpoint defined for 90.1-2013 FullServiceRestaurant Kitchen, assuming 375 Lux.",
               "For FullServiceRestaurant Kitchen B end_a - Story Ground: sensor 1 controls 29% of the zone lighting.",
               "For FullServiceRestaurant Kitchen B end_a - Story Ground: sensor 2 controls 29% of the zone lighting.",
               "For FullServiceRestaurant Kitchen C  - Story Ground: no specific illuminance setpoint defined for 90.1-2013 FullServiceRestaurant Kitchen, assuming 375 Lux.",
               "For FullServiceRestaurant Kitchen C  - Story Ground: sensor 1 controls 29% of the zone lighting.",
               "For FullServiceRestaurant Kitchen C  - Story Ground: sensor 2 controls 29% of the zone lighting.",
               "For FullServiceRestaurant Kitchen C end_a - Story Ground, primary sidelighting control not required because less than 150W of lighting are present in the primary daylighted area per 9.4.1.1(e).",
               "For FullServiceRestaurant Kitchen C end_a - Story Ground, secondary sidelighting control not required because less than 300W of lighting are present in the combined primary and secondary daylighted areas per 9.4.1.1(e).",
               "Finished adding daylighting controls.",
               "Finished adding internal mass",
               "FullServiceRestaurant Dining - 90.1-2013 set heating setpoint schedule to RestaurantSitDown HTGSETP_SCH_NO_OPTIMUM.",
               "FullServiceRestaurant Dining - 90.1-2013 set cooling setpoint schedule to RestaurantSitDown CLGSETP_SCH_NO_OPTIMUM.",
               "FullServiceRestaurant Kitchen - 90.1-2013 set heating setpoint schedule to RestaurantSitDown HTGSETP_KITCHEN_SCH_NO_OPTIMUM.",
               "FullServiceRestaurant Kitchen - 90.1-2013 set cooling setpoint schedule to RestaurantSitDown CLGSETP_KITCHEN_SCH_NO_OPTIMUM.",
               "Added internal mass 'FullServiceRestaurant Dining C end_b - Story Top Mass' to space 'FullServiceRestaurant Dining C end_b - Story Top'.",
               "Added internal mass 'FullServiceRestaurant Dining B end_b - Story Top Mass' to space 'FullServiceRestaurant Dining B end_b - Story Top'.",
               "Added internal mass 'FullServiceRestaurant Dining A end_b - Story Top Mass' to space 'FullServiceRestaurant Dining A end_b - Story Top'.",
               "Added internal mass 'FullServiceRestaurant Dining B  - Story Top Mass' to space 'FullServiceRestaurant Dining B  - Story Top'.",
               "Added internal mass 'FullServiceRestaurant Dining C end_a - Story Top Mass' to space 'FullServiceRestaurant Dining C end_a - Story Top'.",
               "Added internal mass 'FullServiceRestaurant Dining A  - Story Top Mass' to space 'FullServiceRestaurant Dining A  - Story Top'.",
               "Added internal mass 'FullServiceRestaurant Dining C  - Story Ground Mass' to space 'FullServiceRestaurant Dining C  - Story Ground'.",
               "Added internal mass 'FullServiceRestaurant Dining B end_a - Story Top Mass' to space 'FullServiceRestaurant Dining B end_a - Story Top'.",
               "Added internal mass 'FullServiceRestaurant Dining A end_a - Story Mid Mass' to space 'FullServiceRestaurant Dining A end_a - Story Mid'.",
               "Added internal mass 'FullServiceRestaurant Dining A end_b - Story Mid Mass' to space 'FullServiceRestaurant Dining A end_b - Story Mid'.",
               "Added internal mass 'FullServiceRestaurant Dining B end_b - Story Mid Mass' to space 'FullServiceRestaurant Dining B end_b - Story Mid'.",
               "Added internal mass 'FullServiceRestaurant Dining C  - Story Top Mass' to space 'FullServiceRestaurant Dining C  - Story Top'.",
               "Added internal mass 'FullServiceRestaurant Dining C  - Story Mid Mass' to space 'FullServiceRestaurant Dining C  - Story Mid'.",
               "Added internal mass 'FullServiceRestaurant Dining A  - Story Mid Mass' to space 'FullServiceRestaurant Dining A  - Story Mid'.",
               "Added internal mass 'FullServiceRestaurant Dining B  - Story Mid Mass' to space 'FullServiceRestaurant Dining B  - Story Mid'.",
               "Added internal mass 'FullServiceRestaurant Kitchen C end_a - Story Ground Mass' to space 'FullServiceRestaurant Kitchen C end_a - Story Ground'.",
               "Added internal mass 'FullServiceRestaurant Dining C end_b - Story Ground Mass' to space 'FullServiceRestaurant Dining C end_b - Story Ground'.",
               "Added internal mass 'FullServiceRestaurant Dining A end_a - Story Top Mass' to space 'FullServiceRestaurant Dining A end_a - Story Top'.",
               "Added internal mass 'FullServiceRestaurant Dining B end_b - Story Ground Mass' to space 'FullServiceRestaurant Dining B end_b - Story Ground'.",
               "Added internal mass 'FullServiceRestaurant Dining B  - Story Ground Mass' to space 'FullServiceRestaurant Dining B  - Story Ground'.",
               "Added internal mass 'FullServiceRestaurant Kitchen A end_a - Story Ground Mass' to space 'FullServiceRestaurant Kitchen A end_a - Story Ground'.",
               "Added internal mass 'FullServiceRestaurant Dining A  - Story Ground Mass' to space 'FullServiceRestaurant Dining A  - Story Ground'.",
               "Added internal mass 'FullServiceRestaurant Kitchen B  - Story Ground Mass' to space 'FullServiceRestaurant Kitchen B  - Story Ground'.",
               "Added internal mass 'FullServiceRestaurant Dining C end_a - Story Mid Mass' to space 'FullServiceRestaurant Dining C end_a - Story Mid'.",
               "Added internal mass 'FullServiceRestaurant Dining A end_b - Story Ground Mass' to space 'FullServiceRestaurant Dining A end_b - Story Ground'.",
               "Added internal mass 'FullServiceRestaurant Kitchen C  - Story Ground Mass' to space 'FullServiceRestaurant Kitchen C  - Story Ground'.",
               "Added internal mass 'FullServiceRestaurant Dining B end_a - Story Mid Mass' to space 'FullServiceRestaurant Dining B end_a - Story Mid'.",
               "Added internal mass 'FullServiceRestaurant Kitchen B end_a - Story Ground Mass' to space 'FullServiceRestaurant Kitchen B end_a - Story Ground'.",
               "Added internal mass 'FullServiceRestaurant Dining C end_b - Story Mid Mass' to space 'FullServiceRestaurant Dining C end_b - Story Mid'.",
               "Added internal mass 'FullServiceRestaurant Kitchen A  - Story Ground Mass' to space 'FullServiceRestaurant Kitchen A  - Story Ground'.",
               "Finished adding internal mass",
               "Cannot remove Object of type 'OS:Schedule:Day' and named 'Schedule Day 28', because that would invalidate Object of type 'OS:Schedule:Ruleset' and named 'Schedule Ruleset 6'.",
               "Cannot remove Object of type 'OS:Schedule:Day' and named 'Schedule Day 27', because that would invalidate Object of type 'OS:Schedule:Ruleset' and named 'Schedule Ruleset 5'.",
               "Cannot remove Object of type 'OS:Schedule:Day' and named 'Schedule Day 26', because that would invalidate Object of type 'OS:Schedule:Ruleset' and named 'Schedule Ruleset 4'.",
               "Cannot remove Object of type 'OS:Schedule:Day' and named 'Schedule Day 25', because that would invalidate Object of type 'OS:Schedule:Ruleset' and named 'Schedule Ruleset 3'."
            ],
            "step_initial_condition" : "The building started with 513 objects.",
            "step_result" : "Success",
            "step_values" : [
               {
                  "name" : "template",
                  "value" : "90.1-2013"
               },
               {
                  "name" : "system_type",
                  "value" : "Inferred"
               },
               {
                  "name" : "hvac_delivery_type",
                  "value" : "Forced Air"
               },
               {
                  "name" : "htg_src",
                  "value" : "NaturalGas"
               },
               {
                  "name" : "clg_src",
                  "value" : "Electricity"
               },
               {
                  "name" : "swh_src",
                  "value" : "Inferred"
               },
               {
                  "name" : "kitchen_makeup",
                  "value" : "Adjacent"
               },
               {
                  "name" : "exterior_lighting_zone",
                  "value" : "3 - All Other Areas"
               },
               {
                  "name" : "add_constructions",
                  "value" : true
               },
               {
                  "name" : "add_space_type_loads",
                  "value" : true
               },
               {
                  "name" : "add_elevators",
                  "value" : true
               },
               {
                  "name" : "add_internal_mass",
                  "value" : true
               },
               {
                  "name" : "add_exterior_lights",
                  "value" : true
               },
               {
                  "name" : "onsite_parking_fraction",
                  "value" : 1
               },
               {
                  "name" : "add_exhaust",
                  "value" : true
               },
               {
                  "name" : "add_swh",
                  "value" : true
               },
               {
                  "name" : "add_thermostat",
                  "value" : true
               },
               {
                  "name" : "add_hvac",
                  "value" : false
               },
               {
                  "name" : "add_refrigeration",
                  "value" : false
               },
               {
                  "name" : "modify_wkdy_op_hrs",
                  "value" : false
               },
               {
                  "name" : "wkdy_op_hrs_start_time",
                  "value" : 8
               },
               {
                  "name" : "wkdy_op_hrs_duration",
                  "value" : 8
               },
               {
                  "name" : "modify_wknd_op_hrs",
                  "value" : false
               },
               {
                  "name" : "wknd_op_hrs_start_time",
                  "value" : 8
               },
               {
                  "name" : "wknd_op_hrs_duration",
                  "value" : 8
               },
               {
                  "name" : "unmet_hours_tolerance",
                  "value" : 1
               },
               {
                  "name" : "remove_objects",
                  "value" : true
               },
               {
                  "name" : "use_upstream_args",
                  "value" : true
               },
               {
                  "name" : "enable_dst",
                  "value" : true
               },
               {
                  "name" : "climate_zone",
                  "value" : "Lookup From Model"
               }
            ],
            "step_warnings" : [
               "[openstudio.standards.ConstructionBase] Can only set the u-value of opaque constructions or simple glazing. U 0.48 SHGC 0.40 Dbl Ref-D Clr 6mm/13mm is not opaque or simple glazing.",
               "[openstudio.standards.ConstructionBase] Can only set the u-value of opaque constructions or simple glazing. U 0.44 SHGC 0.26 Dbl Ref-B-H Clr 6mm/13mm Air is not opaque or simple glazing.",
               "[openstudio.standards.ConstructionBase] Can only set the u-value of opaque constructions or simple glazing. Window_U_0.50_SHGC_0.40_Skylight_Frame_Width_0.430_in is not opaque or simple glazing.",
               "[openstudio.model.Model] Model has zone with",
               "[openstudio.model.Model] Model has zone with",
               "[openstudio.model.Model] Model has zone with",
               "[openstudio.model.Model] In model_add_typical, num_water_heaters = 1"
            ]
         }
      },
      {
         "arguments" : {
            "__SKIP__" : false,
            "blend_method" : "Building Story"
         },
         "measure_dir_name" : "blended_space_type_from_model",
         "result" : {
            "completed_at" : "20200325T001438Z",
            "measure_class_name" : "BlendedSpaceTypeFromModel",
            "measure_display_name" : "Blended Space Type from Model",
            "measure_name" : "blended_space_type_from_model",
            "measure_taxonomy" : "Whole Building.Space Types",
            "measure_type" : "ModelMeasure",
            "measure_uid" : "667c2f1f-0927-4dbd-a7be-1087b5c15181",
            "measure_version_id" : "291ff117-9c95-4d04-b17b-edf8b051678d",
            "measure_version_modified" : "20200229T024055Z",
            "measure_xml_checksum" : "28AD5222",
            "started_at" : "20200325T001438Z",
            "stderr" : "",
            "stdout" : "",
            "step_errors" : [],
            "step_files" : [],
            "step_final_condition" : "The final building uses 3 spaces types.",
            "step_info" : [
               "Story Ground area is 41,877.00 ft^2, number of people is 704.",
               "Story Ground accounts for 2 space types.",
               "Blending space type FullServiceRestaurant Kitchen - 90.1-2013 Story Ground. Floor area ratio is 0.818. People ratio is 0.244",
               "Blending space type FullServiceRestaurant Dining - 90.1-2013 Story Ground. Floor area ratio is 0.182. People ratio is 0.756",
               "Blending space FullServiceRestaurant Kitchen C end_a - Story Ground. Floor area ratio is 0.005. People ratio is 0.002",
               "Blending space FullServiceRestaurant Kitchen A end_a - Story Ground. Floor area ratio is 0.005. People ratio is 0.002",
               "Blending space FullServiceRestaurant Kitchen B  - Story Ground. Floor area ratio is 0.636. People ratio is 0.189",
               "Blending space FullServiceRestaurant Kitchen C  - Story Ground. Floor area ratio is 0.055. People ratio is 0.016",
               "Blending space FullServiceRestaurant Kitchen B end_a - Story Ground. Floor area ratio is 0.063. People ratio is 0.019",
               "Blending space FullServiceRestaurant Kitchen A  - Story Ground. Floor area ratio is 0.055. People ratio is 0.016",
               "Blending space FullServiceRestaurant Dining C  - Story Ground. Floor area ratio is 0.008. People ratio is 0.033",
               "Blending space FullServiceRestaurant Dining C end_b - Story Ground. Floor area ratio is 0.005. People ratio is 0.022",
               "Blending space FullServiceRestaurant Dining B end_b - Story Ground. Floor area ratio is 0.063. People ratio is 0.261",
               "Blending space FullServiceRestaurant Dining B  - Story Ground. Floor area ratio is 0.092. People ratio is 0.385",
               "Blending space FullServiceRestaurant Dining A  - Story Ground. Floor area ratio is 0.008. People ratio is 0.033",
               "Blending space FullServiceRestaurant Dining A end_b - Story Ground. Floor area ratio is 0.005. People ratio is 0.022",
               "Story Mid area is 41,877.00 ft^2, number of people is 2931.",
               "Story Mid accounts for 1 space types.",
               "Blending space type FullServiceRestaurant Dining - 90.1-2013 Story Mid. Floor area ratio is 1.0. People ratio is 1.0",
               "Blending space FullServiceRestaurant Dining A end_a - Story Mid. Floor area ratio is 0.005. People ratio is 0.005",
               "Blending space FullServiceRestaurant Dining A end_b - Story Mid. Floor area ratio is 0.005. People ratio is 0.005",
               "Blending space FullServiceRestaurant Dining B end_b - Story Mid. Floor area ratio is 0.063. People ratio is 0.063",
               "Blending space FullServiceRestaurant Dining C  - Story Mid. Floor area ratio is 0.063. People ratio is 0.063",
               "Blending space FullServiceRestaurant Dining A  - Story Mid. Floor area ratio is 0.063. People ratio is 0.063",
               "Blending space FullServiceRestaurant Dining B  - Story Mid. Floor area ratio is 0.728. People ratio is 0.728",
               "Blending space FullServiceRestaurant Dining C end_a - Story Mid. Floor area ratio is 0.005. People ratio is 0.005",
               "Blending space FullServiceRestaurant Dining B end_a - Story Mid. Floor area ratio is 0.063. People ratio is 0.063",
               "Blending space FullServiceRestaurant Dining C end_b - Story Mid. Floor area ratio is 0.005. People ratio is 0.005",
               "Story Top area is 41,877.00 ft^2, number of people is 2931.",
               "Story Top accounts for 1 space types.",
               "Blending space type FullServiceRestaurant Dining - 90.1-2013 Story Top. Floor area ratio is 1.0. People ratio is 1.0",
               "Blending space FullServiceRestaurant Dining C end_b - Story Top. Floor area ratio is 0.005. People ratio is 0.005",
               "Blending space FullServiceRestaurant Dining B end_b - Story Top. Floor area ratio is 0.063. People ratio is 0.063",
               "Blending space FullServiceRestaurant Dining A end_b - Story Top. Floor area ratio is 0.005. People ratio is 0.005",
               "Blending space FullServiceRestaurant Dining B  - Story Top. Floor area ratio is 0.728. People ratio is 0.728",
               "Blending space FullServiceRestaurant Dining C end_a - Story Top. Floor area ratio is 0.005. People ratio is 0.005",
               "Blending space FullServiceRestaurant Dining A  - Story Top. Floor area ratio is 0.063. People ratio is 0.063",
               "Blending space FullServiceRestaurant Dining B end_a - Story Top. Floor area ratio is 0.063. People ratio is 0.063",
               "Blending space FullServiceRestaurant Dining C  - Story Top. Floor area ratio is 0.063. People ratio is 0.063",
               "Blending space FullServiceRestaurant Dining A end_a - Story Top. Floor area ratio is 0.005. People ratio is 0.005"
            ],
            "step_initial_condition" : "The initial building uses 4 spaces types.",
            "step_result" : "Success",
            "step_values" : [
               {
                  "name" : "blend_method",
                  "value" : "Building Story"
               }
            ],
            "step_warnings" : [
               "FullServiceRestaurant Kitchen C  - Story Ground has one or more daylighting controls. Lighting loads from blended space type may affect lighting reduction from daylighting controls.",
               "FullServiceRestaurant Kitchen B end_a - Story Ground has one or more daylighting controls. Lighting loads from blended space type may affect lighting reduction from daylighting controls.",
               "FullServiceRestaurant Kitchen A  - Story Ground has one or more daylighting controls. Lighting loads from blended space type may affect lighting reduction from daylighting controls.",
[...]
               },
               {
                  "name" : "add_constructions",
                  "value" : false
               },
               {
                  "name" : "add_space_type_loads",
                  "value" : false
               },
               {
                  "name" : "add_elevators",
                  "value" : false
               },
               {
                  "name" : "add_internal_mass",
                  "value" : true
               },
               {
                  "name" : "add_exterior_lights",
                  "value" : false
               },
               {
                  "name" : "onsite_parking_fraction",
                  "value" : 1
               },
               {
                  "name" : "add_exhaust",
                  "value" : false
               },
               {
                  "name" : "add_swh",
                  "value" : false
               },
               {
                  "name" : "add_thermostat",
                  "value" : true
               },
               {
                  "name" : "add_hvac",
                  "value" : true
               },
               {
                  "name" : "add_refrigeration",
                  "value" : false
               },
               {
                  "name" : "modify_wkdy_op_hrs",
                  "value" : false
               },
               {
                  "name" : "wkdy_op_hrs_start_time",
                  "value" : 8
               },
               {
                  "name" : "wkdy_op_hrs_duration",
                  "value" : 8
               },
               {
                  "name" : "modify_wknd_op_hrs",
                  "value" : false
               },
               {
                  "name" : "wknd_op_hrs_start_time",
                  "value" : 8
               },
               {
                  "name" : "wknd_op_hrs_duration",
                  "value" : 8
               },
               {
                  "name" : "unmet_hours_tolerance",
                  "value" : 1
               },
               {
                  "name" : "remove_objects",
                  "value" : false
               },
               {
                  "name" : "use_upstream_args",
                  "value" : false
               },
               {
                  "name" : "enable_dst",
                  "value" : true
               },
               {
                  "name" : "climate_zone",
                  "value" : "Lookup From Model"
               }
            ],
            "step_warnings" : [
               "[openstudio.standards.AirLoopHVAC] Cannot find economizer limits for 90.1-2013, , assuming no economizer required.",
               "[openstudio.standards.AirLoopHVAC] Cannot find economizer limits for 90.1-2013, , assuming no economizer required.",
               "[openstudio.standards.AirLoopHVAC] Cannot find economizer limits for 90.1-2013, , assuming no economizer required."
            ]
         }
      },
      {
         "arguments" : {
            "__SKIP__" : false,
            "airVelocitySchedule" : "Air Velocity Schedule",
            "clothingSchedule" : "Clothing Schedule",
            "comfortWarnings" : true,
            "workEfficiencySchedule" : "Work Efficiency Schedule"
         },
         "measure_dir_name" : "PredictedMeanVote",
         "result" : {
            "completed_at" : "20200325T001447Z",
            "measure_class_name" : "PredictedMeanVote",
            "measure_display_name" : "Predicted Mean Vote",
            "measure_name" : "predicted_mean_vote",
            "measure_taxonomy" : "Reporting.QAQC",
            "measure_type" : "ModelMeasure",
            "measure_uid" : "11cd3144-dac6-4f64-90e4-b8804c6bfc5e",
            "measure_version_id" : "3351a0f8-9ffc-4dbd-a36b-873d8f45851b",
            "measure_version_modified" : "20200228T204851Z",
            "measure_xml_checksum" : "0CA4D54C",
            "started_at" : "20200325T001447Z",
            "stderr" : "",
            "stdout" : "",
            "step_errors" : [],
            "step_files" : [],
            "step_final_condition" : "2 people definitions and 4 people instances were altered.",
            "step_info" : [
               "Editing 'FullServiceRestaurant Dining People Definition'",
               "Editing 'FullServiceRestaurant Kitchen People Definition'",
               "Assigning Schedules for 'FullServiceRestaurant Dining People 3'",
               "Assigning Schedules for 'FullServiceRestaurant Kitchen People 1'",
               "Assigning Schedules for 'FullServiceRestaurant Dining People 2'",
               "Assigning Schedules for 'FullServiceRestaurant Dining People 1'",
               "Adding zone output variables for Fanger PMV, Fanger PPD, and ASHRAE 55"
            ],
            "step_initial_condition" : "The building started with 2 people definitions.",
            "step_result" : "Success",
            "step_values" : [
               {
                  "name" : "comfortWarnings",
                  "value" : true
               },
               {
                  "name" : "meanRadiantCalcType",
                  "value" : "ZoneAveraged"
               },
               {
                  "name" : "workEfficiencySchedule",
                  "value" : "{3ee5f655-a293-4646-ace9-285ea37d4d33}"
               },
               {
                  "name" : "clothingSchedule",
                  "value" : "{03dbb331-4e09-47d8-9964-dcac2ff140d4}"
               },
               {
                  "name" : "airVelocitySchedule",
                  "value" : "{4ff179ea-c0bd-42f0-b0cb-f3ccd9f08743}"
               },
               {
                  "name" : "reporting_frequency",
                  "value" : "Timestep"
               }
            ],
            "step_warnings" : []
         }
      },
      {
         "arguments" : {
            "__SKIP__" : true,
            "r_value" : 10
         },
         "measure_dir_name" : "IncreaseInsulationRValueForExteriorWalls",
         "result" : {
            "completed_at" : "20200325T001447Z",
            "measure_class_name" : "IncreaseInsulationRValueForExteriorWalls",
            "measure_display_name" : "Increase R-value of Insulation for Exterior Walls to a Specific Value",
            "measure_name" : "increase_insulation_r_value_for_exterior_walls",
            "measure_taxonomy" : "Envelope.Opaque",
            "measure_type" : "ModelMeasure",
            "measure_uid" : "3fdf9c39-d305-449b-a4b5-077166af5a67",
            "measure_version_id" : "b55a41da-39d3-45b1-a9d0-605b292667fe",
            "measure_version_modified" : "20200229T024316Z",
            "measure_xml_checksum" : "0F858D9E",
            "started_at" : "20200325T001447Z",
            "stderr" : "",
            "stdout" : "",
            "step_errors" : [],
            "step_files" : [],
            "step_info" : [],
            "step_result" : "Skip",
            "step_values" : [],
            "step_warnings" : []
         }
      },
      {
         "arguments" : {
            "__SKIP__" : true,
            "elecequip_power_reduction_percent" : 20
         },
         "measure_dir_name" : "ReduceElectricEquipmentLoadsByPercentage",
         "result" : {
            "completed_at" : "20200325T001447Z",
            "measure_class_name" : "ReduceElectricEquipmentLoadsByPercentage",
            "measure_display_name" : "Reduce Electric Equipment Loads by Percentage",
            "measure_name" : "reduce_electric_equipment_loads_by_percentage",
            "measure_taxonomy" : "Equipment.Electric Equipment",
            "measure_type" : "ModelMeasure",
            "measure_uid" : "0902e302-70db-4339-99b0-17f08bc93629",
            "measure_version_id" : "3edc28aa-ab1d-4495-affa-d8e5873431b1",
            "measure_version_modified" : "20200229T024319Z",
            "measure_xml_checksum" : "F9A5B8F0",
            "started_at" : "20200325T001447Z",
            "stderr" : "",
            "stdout" : "",
            "step_errors" : [],
            "step_files" : [],
            "step_info" : [],
            "step_result" : "Skip",
            "step_values" : [],
            "step_warnings" : []
         }
      },
      {
         "arguments" : {
            "__SKIP__" : true,
            "lighting_power_reduction_percent" : 30
         },
         "measure_dir_name" : "ReduceLightingLoadsByPercentage",
         "result" : {
            "completed_at" : "20200325T001447Z",
            "measure_class_name" : "ReduceLightingLoadsByPercentage",
            "measure_display_name" : "Reduce Lighting Loads by Percentage",
            "measure_name" : "reduce_lighting_loads_by_percentage",
            "measure_taxonomy" : "Electric Lighting.Lighting Equipment",
            "measure_type" : "ModelMeasure",
            "measure_uid" : "791f3404-a28b-4a80-ba3f-e15b339e39ea",
            "measure_version_id" : "01e31b73-acc4-47cd-b6cb-8c54238964fc",
            "measure_version_modified" : "20200229T024320Z",
            "measure_xml_checksum" : "293730A7",
            "started_at" : "20200325T001447Z",
            "stderr" : "",
            "stdout" : "",
            "step_errors" : [],
            "step_files" : [],
            "step_info" : [],
            "step_result" : "Skip",
            "step_values" : [],
            "step_warnings" : []
         }
      },
      {
         "arguments" : {
            "feature_id" : "3",
            "feature_name" : "Residential 1",
            "feature_type" : "Building"
         },
         "measure_dir_name" : "default_feature_reports",
         "result" : {
            "completed_at" : "20200325T001501Z",
            "measure_class_name" : "DefaultFeatureReports",
            "measure_display_name" : "DefaultFeatureReports",
            "measure_name" : "default_feature_reports",
            "measure_taxonomy" : "Reporting.QAQC",
            "measure_type" : "ReportingMeasure",
            "measure_uid" : "9ee3135a-8070-4408-bfa1-b75fecf9dd4f",
            "measure_version_id" : "607df4a0-d1ff-4c14-8d2f-93cde078dc47",
            "measure_version_modified" : "20200308T020104Z",
            "measure_xml_checksum" : "FB304155",
            "started_at" : "20200325T001455Z",
            "stderr" : "",
            "stdout" : "",
            "step_errors" : [],
            "step_files" : [
               "/Users/tkwasnik/github/urbanopt-example-reopt-project/run/baseline_scenario/3/011_default_feature_reports/default_feature_reports.json",
               "/Users/tkwasnik/github/urbanopt-example-reopt-project/run/baseline_scenario/3/011_default_feature_reports/default_feature_reports.csv"
            ],
            "step_final_condition" : "Default Feature Reports generated successfully.",
            "step_info" : [
               "All timeseries: [\"Electricity:Facility\", \"ElectricityProduced:Facility\", \"Gas:Facility\", \"DistrictCooling:Facility\", \"DistrictHeating:Facility\", \"District Cooling Chilled Water Rate\", \"District Cooling Mass Flow Rate\", \"District Cooling Inlet Temperature\", \"District Cooling Outlet Temperature\", \"District Heating Hot Water Rate\", \"District Heating Mass Flow Rate\", \"District Heating Inlet Temperature\", \"District Heating Outlet Temperature\", \"Zone Thermal Comfort Fanger Model PMV\", \"Zone Thermal Comfort Fanger Model PPD\", \"Net Electric Energy\", \"Electricity:Facility Power\", \"ElectricityProduced:Facility Power\", \"Electricity:Facility Apparent Power\", \"ElectricityProduced:Facility Apparent Power\", \"Net Power\", \"Net Apparent Power\"]",
               "TIMESERIES: Electricity:Facility",
               "KEY VALUES: [\"\"]",
               "!! TIMESERIES NAME: Electricity:Facility AND key_value: ",
               "First timeseries",
               "TIMESERIES: ElectricityProduced:Facility",
               "KEY VALUES: []",
               "!! TIMESERIES NAME: ElectricityProduced:Facility AND key_value: ",
               "Is NOT Initialized",
               "TIMESERIES: Gas:Facility",
               "KEY VALUES: [\"\"]",
               "!! TIMESERIES NAME: Gas:Facility AND key_value: ",
               "Is Initialized",
               "TIMESERIES: DistrictCooling:Facility",
               "KEY VALUES: []",
               "!! TIMESERIES NAME: DistrictCooling:Facility AND key_value: ",
               "Is NOT Initialized",
               "TIMESERIES: DistrictHeating:Facility",
               "KEY VALUES: []",
               "!! TIMESERIES NAME: DistrictHeating:Facility AND key_value: ",
               "Is NOT Initialized",
               "TIMESERIES: District Cooling Chilled Water Rate",
               "KEY VALUES: []",
               "!! TIMESERIES NAME: District Cooling Chilled Water Rate AND key_value: ",
               "Is NOT Initialized",
               "TIMESERIES: District Cooling Mass Flow Rate",
               "KEY VALUES: []",
               "!! TIMESERIES NAME: District Cooling Mass Flow Rate AND key_value: ",
               "Is NOT Initialized",
               "TIMESERIES: District Cooling Inlet Temperature",
               "KEY VALUES: []",
               "!! TIMESERIES NAME: District Cooling Inlet Temperature AND key_value: ",
               "Is NOT Initialized",
               "TIMESERIES: District Cooling Outlet Temperature",
               "KEY VALUES: []",
               "!! TIMESERIES NAME: District Cooling Outlet Temperature AND key_value: ",
               "Is NOT Initialized",
               "TIMESERIES: District Heating Hot Water Rate",
               "KEY VALUES: []",
               "!! TIMESERIES NAME: District Heating Hot Water Rate AND key_value: ",
               "Is NOT Initialized",
               "TIMESERIES: District Heating Mass Flow Rate",
               "KEY VALUES: []",
               "!! TIMESERIES NAME: District Heating Mass Flow Rate AND key_value: ",
               "Is NOT Initialized",
               "TIMESERIES: District Heating Inlet Temperature",
               "KEY VALUES: []",
               "!! TIMESERIES NAME: District Heating Inlet Temperature AND key_value: ",
               "Is NOT Initialized",
               "TIMESERIES: District Heating Outlet Temperature",
               "KEY VALUES: []",
               "!! TIMESERIES NAME: District Heating Outlet Temperature AND key_value: ",
               "Is NOT Initialized",
               "TIMESERIES: Zone Thermal Comfort Fanger Model PMV",
               "KEY VALUES: [\"BUILDING STORY 1 THERMALZONE FULLSERVICERESTAURANT DINING PEOPLE 3\", \"BUILDING STORY 2 THERMALZONE FULLSERVICERESTAURANT DINING PEOPLE 2\", \"BUILDING STORY 3 THERMALZONE FULLSERVICERESTAURANT DINING PEOPLE 1\", \"BUILDING STORY 3 THERMALZONE FULLSERVICERESTAURANT KITCHEN PEOPLE 1\"]",
               "!! TIMESERIES NAME: Zone Thermal Comfort Fanger Model PMV AND key_value: BUILDING STORY 1 THERMALZONE FULLSERVICERESTAURANT DINING PEOPLE 3",
               "Is Initialized",
               "SETTING UP NEW ARRAY FOR: Zone Thermal Comfort Fanger Model PMV",
               "!! TIMESERIES NAME: Zone Thermal Comfort Fanger Model PMV AND key_value: BUILDING STORY 2 THERMALZONE FULLSERVICERESTAURANT DINING PEOPLE 2",
               "Is Initialized",
               "!! TIMESERIES NAME: Zone Thermal Comfort Fanger Model PMV AND key_value: BUILDING STORY 3 THERMALZONE FULLSERVICERESTAURANT DINING PEOPLE 1",
               "Is Initialized",
               "!! TIMESERIES NAME: Zone Thermal Comfort Fanger Model PMV AND key_value: BUILDING STORY 3 THERMALZONE FULLSERVICERESTAURANT KITCHEN PEOPLE 1",
               "Is Initialized",
               "timeseries Zone Thermal Comfort Fanger Model PMV: hours out of bounds: 954.0",
               "TIMESERIES: Zone Thermal Comfort Fanger Model PPD",
               "KEY VALUES: [\"BUILDING STORY 1 THERMALZONE FULLSERVICERESTAURANT DINING PEOPLE 3\", \"BUILDING STORY 2 THERMALZONE FULLSERVICERESTAURANT DINING PEOPLE 2\", \"BUILDING STORY 3 THERMALZONE FULLSERVICERESTAURANT DINING PEOPLE 1\", \"BUILDING STORY 3 THERMALZONE FULLSERVICERESTAURANT KITCHEN PEOPLE 1\"]",
               "!! TIMESERIES NAME: Zone Thermal Comfort Fanger Model PPD AND key_value: BUILDING STORY 1 THERMALZONE FULLSERVICERESTAURANT DINING PEOPLE 3",
               "Is Initialized",
               "SETTING UP NEW ARRAY FOR: Zone Thermal Comfort Fanger Model PPD",
               "!! TIMESERIES NAME: Zone Thermal Comfort Fanger Model PPD AND key_value: BUILDING STORY 2 THERMALZONE FULLSERVICERESTAURANT DINING PEOPLE 2",
               "Is Initialized",
               "!! TIMESERIES NAME: Zone Thermal Comfort Fanger Model PPD AND key_value: BUILDING STORY 3 THERMALZONE FULLSERVICERESTAURANT DINING PEOPLE 1",
               "Is Initialized",
               "!! TIMESERIES NAME: Zone Thermal Comfort Fanger Model PPD AND key_value: BUILDING STORY 3 THERMALZONE FULLSERVICERESTAURANT KITCHEN PEOPLE 1",
               "Is Initialized",
               "timeseries Zone Thermal Comfort Fanger Model PPD: hours out of bounds: 186.25",
               "TIMESERIES: Net Electric Energy",
               "KEY VALUES: []",
               "!! TIMESERIES NAME: Net Electric Energy AND key_value: ",
               "Is NOT Initialized",
               "TIMESERIES: Electricity:Facility Power",
               "KEY VALUES: []",
               "!! TIMESERIES NAME: Electricity:Facility Power AND key_value: ",
               "Is NOT Initialized",
               "timeseries_name: Electricity:Facility Power, key: Electricity:Facility",
               "TIMESERIES: ElectricityProduced:Facility Power",
               "KEY VALUES: []",
               "!! TIMESERIES NAME: ElectricityProduced:Facility Power AND key_value: ",
               "Is NOT Initialized",
               "timeseries_name: ElectricityProduced:Facility Power, key: ElectricityProduced:Facility",
               "TIMESERIES: Electricity:Facility Apparent Power",
               "KEY VALUES: []",
               "!! TIMESERIES NAME: Electricity:Facility Apparent Power AND key_value: ",
               "Is NOT Initialized",
               "timeseries_name: Electricity:Facility Apparent Power, key: Electricity:Facility",
               "TIMESERIES: ElectricityProduced:Facility Apparent Power",
               "KEY VALUES: []",
               "!! TIMESERIES NAME: ElectricityProduced:Facility Apparent Power AND key_value: ",
               "Is NOT Initialized",
               "timeseries_name: ElectricityProduced:Facility Apparent Power, key: ElectricityProduced:Facility",
               "TIMESERIES: Net Power",
               "KEY VALUES: []",
               "!! TIMESERIES NAME: Net Power AND key_value: ",
               "Is NOT Initialized",
               "Power calc",
               "TIMESERIES: Net Apparent Power",
               "KEY VALUES: []",
               "!! TIMESERIES NAME: Net Apparent Power AND key_value: ",
               "Is NOT Initialized",
               "new final_timeseries_names size: 29"
            ],
            "step_result" : "Success",
            "step_values" : [
               {
                  "name" : "feature_id",
                  "value" : "3"
               },
               {
                  "name" : "feature_name",
                  "value" : "Residential 1"
               },
               {
                  "name" : "feature_type",
                  "value" : "Building"
               },
               {
                  "name" : "reporting_frequency",
                  "value" : "Timestep"
               }
            ],
            "step_warnings" : [
               "Query failed for Life-Cycle Cost Report and TableName='Present Value for Recurring, Nonrecurring and Energy Costs (Before Tax)' AND RowName='LCC_MAT - BUILDING - LIFE CYCLE COSTS' AND ColumnName='Cost'"
            ]
         }
      }
   ],
   "updated_at" : "20200325T001502Z",
   "weather_file" : null
}
