{
   "completed_at" : "20200103T175921Z",
   "completed_status" : "Success",
   "current_step" : 11,
   "description" : "Residential 1",
   "eplusout_err" : "Program Version,EnergyPlus, Version 9.1.0-08d2e308bb, YMD=2020.01.03 10:58,\n   ** Warning ** Timestep: Requested number (1) is less than the suggested minimum of 4.\n   **   ~~~   ** Please see entry for Timestep in Input/Output Reference for discussion of considerations.\n   ************* Beginning Zone Sizing Calculations\n   ** Warning ** ProcessScheduleInput: Schedule:Day:Interval=\"33 SPACE(S) OCC SCH DEFAULT\", Blank Schedule Type Limits Name input -- will not be validated.\n   ** Warning ** ProcessScheduleInput: Schedule:Day:Interval=\"33 SPACE(S) OCC SCH SUMMER DESIGN DAY\", Blank Schedule Type Limits Name input -- will not be validated.\n   ** Warning ** ProcessScheduleInput: Schedule:Day:Interval=\"33 SPACE(S) OCC SCH SUNDAY\", Blank Schedule Type Limits Name input -- will not be validated.\n   ** Warning ** ProcessScheduleInput: Schedule:Day:Interval=\"33 SPACE(S) OCC SCH WINTER DESIGN DAY\", Blank Schedule Type Limits Name input -- will not be validated.\n   ** Warning ** ProcessScheduleInput: Schedule:Day:Interval=\"ECONOMIZER MAX OA FRACTION 70 PCT DEFAULT\", Blank Schedule Type Limits Name input -- will not be validated.\n   ** Warning ** ProcessScheduleInput: Schedule:Year=\"ECONOMIZER MAX OA FRACTION 70 PCT\", Blank Schedule Type Limits Name input -- will not be validated.\n   ** Warning ** ProcessScheduleInput: Schedule:Year=\"ELEVATOR SCHEDULE\", Blank Schedule Type Limits Name input -- will not be validated.\n   ** Warning ** ProcessScheduleInput: Schedule:Constant=\"ALWAYS OFF DISCRETE\", Blank Schedule Type Limits Name input -- will not be validated.\n   ** Warning ** ProcessScheduleInput: Schedule:Constant=\"ALWAYS ON CONTINUOUS\", Blank Schedule Type Limits Name input -- will not be validated.\n   ** Warning ** CheckUsedConstructions: There are 9 nominally unused constructions in input.\n   **   ~~~   ** For explicit details on each unused construction, use Output:Diagnostics,DisplayExtraWarnings;\n   ************* Beginning Plant Sizing Calculations\n   ** Warning ** The Standard Ratings is calculated for Coil:Cooling:DX:SingleSpeed = BUILDING STORY 1 THERMALZONE PTAC 1SPD DX AC CLG COIL 242KBTU/HR 9.3EER but not at the AHRI test condition due to curve out of bound.\n   **   ~~~   **  Review the Standard Ratings calculations in the Engineering Reference for this coil type. Also, use Output:Diagnostics, DisplayExtraWarnings for further guidance.\n   ** Warning ** The Standard Ratings is calculated for Coil:Cooling:DX:SingleSpeed = BUILDING STORY 2 THERMALZONE PTAC 1SPD DX AC CLG COIL 437KBTU/HR 9.3EER but not at the AHRI test condition due to curve out of bound.\n   **   ~~~   **  Review the Standard Ratings calculations in the Engineering Reference for this coil type. Also, use Output:Diagnostics, DisplayExtraWarnings for further guidance.\n   ** Warning ** The Standard Ratings is calculated for Coil:Cooling:DX:SingleSpeed = BUILDING STORY 3 THERMALZONE PTAC 1SPD DX AC CLG COIL 690KBTU/HR 9.3EER but not at the AHRI test condition due to curve out of bound.\n   **   ~~~   **  Review the Standard Ratings calculations in the Engineering Reference for this coil type. Also, use Output:Diagnostics, DisplayExtraWarnings for further guidance.\n   ** Warning ** Water heater = 115X 50GAL ELECTRICITY WATER HEATER - 20KBTU/HR 1.0 THERM EFF:  Recovery Efficiency and Energy Factor could not be calculated during the test for standard ratings\n   **   ~~~   ** Setpoint was never recovered and/or heater never turned on\n   ** Warning ** Missing temperature setpoint for LeavingSetpointModulated mode Boiler named BOILER 3127KBTU/HR 0.75 THERMAL EFF\n   **   ~~~   **   A temperature setpoint is needed at the outlet node of a boiler in variable flow mode, use a SetpointManager\n   **   ~~~   **   The overall loop setpoint will be assumed for Boiler. The simulation continues ... \n   ** Warning ** Output:Meter: invalid Key Name=\"HEATING:ADDITIONALFUEL\" - not found.\n   ** Warning ** Output:Meter: invalid Key Name=\"HEATING:DISTRICTCOOLING\" - not found.\n   ** Warning ** Output:Meter: invalid Key Name=\"HEATING:DISTRICTHEATING\" - not found.\n   ** Warning ** Output:Meter: invalid Key Name=\"HEATING:WATER\" - not found.\n   ** Warning ** Output:Meter: invalid Key Name=\"COOLING:GAS\" - not found.\n   ** Warning ** Output:Meter: invalid Key Name=\"COOLING:ADDITIONALFUEL\" - not found.\n   ** Warning ** Output:Meter: invalid Key Name=\"COOLING:DISTRICTCOOLING\" - not found.\n   ** Warning ** Output:Meter: invalid Key Name=\"COOLING:DISTRICTHEATING\" - not found.\n   ** Warning ** Output:Meter: invalid Key Name=\"COOLING:WATER\" - not found.\n   ** Warning ** Output:Meter: invalid Key Name=\"INTERIORLIGHTS:GAS\" - not found.\n   ** Warning ** Output:Meter: invalid Key Name=\"INTERIORLIGHTS:ADDITIONALFUEL\" - not found.\n   ** Warning ** Output:Meter: invalid Key Name=\"INTERIORLIGHTS:DISTRICTCOOLING\" - not found.\n   ** Warning ** Output:Meter: invalid Key Name=\"INTERIORLIGHTS:DISTRICTHEATING\" - not found.\n   ** Warning ** Output:Meter: invalid Key Name=\"INTERIORLIGHTS:WATER\" - not found.\n   ** Warning ** Output:Meter: invalid Key Name=\"EXTERIORLIGHTS:GAS\" - not found.\n   ** Warning ** Output:Meter: invalid Key Name=\"EXTERIORLIGHTS:ADDITIONALFUEL\" - not found.\n   ** Warning ** Output:Meter: invalid Key Name=\"EXTERIORLIGHTS:DISTRICTCOOLING\" - not found.\n   ** Warning ** Output:Meter: invalid Key Name=\"EXTERIORLIGHTS:DISTRICTHEATING\" - not found.\n   ** Warning ** Output:Meter: invalid Key Name=\"EXTERIORLIGHTS:WATER\" - not found.\n   ** Warning ** Output:Meter: invalid Key Name=\"INTERIOREQUIPMENT:GAS\" - not found.\n   ** Warning ** Output:Meter: invalid Key Name=\"INTERIOREQUIPMENT:ADDITIONALFUEL\" - not found.\n   ** Warning ** Output:Meter: invalid Key Name=\"INTERIOREQUIPMENT:DISTRICTCOOLING\" - not found.\n   ** Warning ** Output:Meter: invalid Key Name=\"INTERIOREQUIPMENT:DISTRICTHEATING\" - not found.\n   ** Warning ** Output:Meter: invalid Key Name=\"INTERIOREQUIPMENT:WATER\" - not found.\n   ** Warning ** Output:Meter: invalid Key Name=\"EXTERIOREQUIPMENT:ELECTRICITY\" - not found.\n   ** Warning ** Output:Meter: invalid Key Name=\"EXTERIOREQUIPMENT:GAS\" - not found.\n   ** Warning ** Output:Meter: invalid Key Name=\"EXTERIOREQUIPMENT:ADDITIONALFUEL\" - not found.\n   ** Warning ** Output:Meter: invalid Key Name=\"EXTERIOREQUIPMENT:DISTRICTCOOLING\" - not found.\n   ** Warning ** Output:Meter: invalid Key Name=\"EXTERIOREQUIPMENT:DISTRICTHEATING\" - not found.\n   ** Warning ** Output:Meter: invalid Key Name=\"EXTERIOREQUIPMENT:WATER\" - not found.\n   ** Warning ** Output:Meter: invalid Key Name=\"FANS:GAS\" - not found.\n   ** Warning ** Output:Meter: invalid Key Name=\"FANS:ADDITIONALFUEL\" - not found.\n   ** Warning ** Output:Meter: invalid Key Name=\"FANS:DISTRICTCOOLING\" - not found.\n   ** Warning ** Output:Meter: invalid Key Name=\"FANS:DISTRICTHEATING\" - not found.\n   ** Warning ** Output:Meter: invalid Key Name=\"FANS:WATER\" - not found.\n   ** Warning ** Output:Meter: invalid Key Name=\"PUMPS:GAS\" - not found.\n   ** Warning ** Output:Meter: invalid Key Name=\"PUMPS:ADDITIONALFUEL\" - not found.\n   ** Warning ** Output:Meter: invalid Key Name=\"PUMPS:DISTRICTCOOLING\" - not found.\n   ** Warning ** Output:Meter: invalid Key Name=\"PUMPS:DISTRICTHEATING\" - not found.\n   ** Warning ** Output:Meter: invalid Key Name=\"PUMPS:WATER\" - not found.\n   ** Warning ** Output:Meter: invalid Key Name=\"HEATREJECTION:ELECTRICITY\" - not found.\n   ** Warning ** Output:Meter: invalid Key Name=\"HEATREJECTION:GAS\" - not found.\n   ** Warning ** Output:Meter: invalid Key Name=\"HEATREJECTION:ADDITIONALFUEL\" - not found.\n   ** Warning ** Output:Meter: invalid Key Name=\"HEATREJECTION:DISTRICTCOOLING\" - not found.\n   ** Warning ** Output:Meter: invalid Key Name=\"HEATREJECTION:DISTRICTHEATING\" - not found.\n   ** Warning ** Output:Meter: invalid Key Name=\"HEATREJECTION:WATER\" - not found.\n   ** Warning ** Output:Meter: invalid Key Name=\"HUMIDIFIER:ELECTRICITY\" - not found.\n   ** Warning ** Output:Meter: invalid Key Name=\"HUMIDIFIER:GAS\" - not found.\n   ** Warning ** Output:Meter: invalid Key Name=\"HUMIDIFIER:ADDITIONALFUEL\" - not found.\n   ** Warning ** Output:Meter: invalid Key Name=\"HUMIDIFIER:DISTRICTCOOLING\" - not found.\n   ** Warning ** Output:Meter: invalid Key Name=\"HUMIDIFIER:DISTRICTHEATING\" - not found.\n   ** Warning ** Output:Meter: invalid Key Name=\"HUMIDIFIER:WATER\" - not found.\n   ** Warning ** Output:Meter: invalid Key Name=\"HEATRECOVERY:ELECTRICITY\" - not found.\n   ** Warning ** Output:Meter: invalid Key Name=\"HEATRECOVERY:GAS\" - not found.\n   ** Warning ** Output:Meter: invalid Key Name=\"HEATRECOVERY:ADDITIONALFUEL\" - not found.\n   ** Warning ** Output:Meter: invalid Key Name=\"HEATRECOVERY:DISTRICTCOOLING\" - not found.\n   ** Warning ** Output:Meter: invalid Key Name=\"HEATRECOVERY:DISTRICTHEATING\" - not found.\n   ** Warning ** Output:Meter: invalid Key Name=\"HEATRECOVERY:WATER\" - not found.\n   ** Warning ** Output:Meter: invalid Key Name=\"WATERSYSTEMS:GAS\" - not found.\n   ** Warning ** Output:Meter: invalid Key Name=\"WATERSYSTEMS:ADDITIONALFUEL\" - not found.\n   ** Warning ** Output:Meter: invalid Key Name=\"WATERSYSTEMS:DISTRICTCOOLING\" - not found.\n   ** Warning ** Output:Meter: invalid Key Name=\"WATERSYSTEMS:DISTRICTHEATING\" - not found.\n   ** Warning ** Output:Meter: invalid Key Name=\"REFRIGERATION:ELECTRICITY\" - not found.\n   ** Warning ** Output:Meter: invalid Key Name=\"REFRIGERATION:GAS\" - not found.\n   ** Warning ** Output:Meter: invalid Key Name=\"REFRIGERATION:ADDITIONALFUEL\" - not found.\n   ** Warning ** Output:Meter: invalid Key Name=\"REFRIGERATION:DISTRICTCOOLING\" - not found.\n   ** Warning ** Output:Meter: invalid Key Name=\"REFRIGERATION:DISTRICTHEATING\" - not found.\n   ** Warning ** Output:Meter: invalid Key Name=\"REFRIGERATION:WATER\" - not found.\n   ** Warning ** Output:Meter: invalid Key Name=\"GENERATORS:ELECTRICITY\" - not found.\n   ** Warning ** Output:Meter: invalid Key Name=\"GENERATORS:GAS\" - not found.\n   ** Warning ** Output:Meter: invalid Key Name=\"GENERATORS:ADDITIONALFUEL\" - not found.\n   ** Warning ** Output:Meter: invalid Key Name=\"GENERATORS:DISTRICTCOOLING\" - not found.\n   ** Warning ** Output:Meter: invalid Key Name=\"GENERATORS:DISTRICTHEATING\" - not found.\n   ** Warning ** Output:Meter: invalid Key Name=\"GENERATORS:WATER\" - not found.\n   ** Warning ** Output:Meter: invalid Key Name=\"ADDITIONALFUEL:FACILITY\" - not found.\n   ** Warning ** Output:Meter: invalid Key Name=\"DISTRICTCOOLING:FACILITY\" - not found.\n   ** Warning ** Output:Meter: invalid Key Name=\"DISTRICTHEATING:FACILITY\" - not found.\n   ** Warning ** Output:Meter: invalid Key Name=\"DISTRICTCOOLING:FACILITY\" - not found.\n   ** Warning ** Output:Meter: invalid Key Name=\"DISTRICTHEATING:FACILITY\" - not found.\n   ** Warning ** Output:Meter:MeterFileOnly requested for \"Electricity:Facility\" (Hourly), already on \"Output:Meter\". Will report to both eplusout.eso and eplusout.mtr\n   ** Warning ** Output:Meter:MeterFileOnly: invalid Key Name=\"ELECTRICITYPRODUCED:FACILITY\" - not found.\n   ** Warning ** Output:Meter:MeterFileOnly requested for \"Gas:Facility\" (Hourly), already on \"Output:Meter\". Will report to both eplusout.eso and eplusout.mtr\n   ** Warning ** Output:Meter:MeterFileOnly: invalid Key Name=\"DISTRICTCOOLING:FACILITY\" - not found.\n   ** Warning ** Output:Meter:MeterFileOnly: invalid Key Name=\"DISTRICTHEATING:FACILITY\" - not found.\n   ** Warning ** Output:Meter:MeterFileOnly requested for \"Electricity:Facility\" (TimeStep), already on \"Output:Meter\". Will report to both eplusout.eso and eplusout.mtr\n   ************* Testing Individual Branch Integrity\n   ************* All Branches passed integrity testing\n   ************* Testing Individual Supply Air Path Integrity\n   ************* All Supply Air Paths passed integrity testing\n   ************* Testing Individual Return Air Path Integrity\n   ************* All Return Air Paths passed integrity testing\n   ************* No node connection errors were found.\n   ************* Beginning Simulation\n   ** Warning ** Processing Monthly Tabular Reports: Variable names not valid for this simulation\n   **   ~~~   ** ...use Output:Diagnostics,DisplayExtraWarnings; to show more details on individual variables.\n   ** Warning ** The resource referenced by LifeCycleCost:UsePriceEscalation= \"U.S. AVG  COMMERCIAL-ELECTRICITY\" has no energy cost. \n   **   ~~~   ** ... It is likely that the wrong resource is used. The resource should match the meter used in Utility:Tariff.\n   ** Warning ** The resource referenced by LifeCycleCost:UsePriceEscalation= \"U.S. AVG  COMMERCIAL-DISTILLATE OIL\" has no energy cost. \n   **   ~~~   ** ... It is likely that the wrong resource is used. The resource should match the meter used in Utility:Tariff.\n   ** Warning ** The resource referenced by LifeCycleCost:UsePriceEscalation= \"U.S. AVG  COMMERCIAL-RESIDUAL OIL\" has no energy cost. \n   **   ~~~   ** ... It is likely that the wrong resource is used. The resource should match the meter used in Utility:Tariff.\n   ** Warning ** The resource referenced by LifeCycleCost:UsePriceEscalation= \"U.S. AVG  COMMERCIAL-NATURAL GAS\" has no energy cost. \n   **   ~~~   ** ... It is likely that the wrong resource is used. The resource should match the meter used in Utility:Tariff.\n   ** Warning ** The resource referenced by LifeCycleCost:UsePriceEscalation= \"U.S. AVG  COMMERCIAL-COAL\" has no energy cost. \n   **   ~~~   ** ... It is likely that the wrong resource is used. The resource should match the meter used in Utility:Tariff.\n   ************* Simulation Error Summary *************\n   ** Warning ** The following Report Variables were requested but not generated -- check.rdd file\n   **   ~~~   ** Either the IDF did not contain these elements, the variable name is misspelled,\n   **   ~~~   ** or the requested variable is an advanced output which requires Output : Diagnostics, DisplayAdvancedReportVariables;\n   ************* Key=*, VarName=DISTRICT COOLING CHILLED WATER RATE, Frequency=Hourly\n   ************* Key=*, VarName=DISTRICT COOLING MASS FLOW RATE, Frequency=Hourly\n   ************* Key=*, VarName=DISTRICT COOLING INLET TEMPERATURE, Frequency=Hourly\n   ************* Key=*, VarName=DISTRICT COOLING OUTLET TEMPERATURE, Frequency=Hourly\n   ************* Key=*, VarName=DISTRICT HEATING HOT WATER RATE, Frequency=Hourly\n   ************* Key=*, VarName=DISTRICT HEATING MASS FLOW RATE, Frequency=Hourly\n   ************* Key=*, VarName=DISTRICT HEATING INLET TEMPERATURE, Frequency=Hourly\n   ************* Key=*, VarName=DISTRICT HEATING OUTLET TEMPERATURE, Frequency=Hourly\n   ************* There are 14 unused schedules in input.\n   ************* There are 15 unused week schedules in input.\n   ************* There are 33 unused day schedules in input.\n   ************* Use Output:Diagnostics,DisplayUnusedSchedules; to see them.\n   *************\n   ************* ===== Final Error Summary =====\n   ************* The following error categories occurred.  Consider correcting or noting.\n   ************* Nominally Unused Constructions\n   ************* ..The nominally unused constructions warning is provided to alert you to potential conditions that can cause\n   ************* ..extra time during simulation. Each construction is calculated by the algorithm indicated in the HeatBalanceAlgorithm\n   ************* ..object. You may remove the constructions indicated (when you use the DisplayExtraWarnings option).\n   *************\n   ************* EnergyPlus Warmup Error Summary. During Warmup: 0 Warning; 0 Severe Errors.\n   ************* EnergyPlus Sizing Error Summary. During Sizing: 10 Warning; 0 Severe Errors.\n   ************* EnergyPlus Completed Successfully-- 108 Warning; 0 Severe Errors; Elapsed Time=00hr 00min  8.65sec\n",
   "file_paths" : [
      "/Users/tkwasnik/github/urbanopt-example-geojson-reopt-project/run/baseline_scenario/3/generated_files",
      "/Users/tkwasnik/github/urbanopt-example-geojson-reopt-project/mappers/../weather/",
      "/Users/tkwasnik/github/urbanopt-example-geojson-reopt-project/.bundle/install/ruby/2.2.0/gems/openstudio-common-measures-0.1.0/lib/files",
      "/Users/tkwasnik/github/urbanopt-example-geojson-reopt-project/.bundle/install/ruby/2.2.0/gems/openstudio-model-articulation-0.1.0/lib/files",
      "/Users/tkwasnik/github/urbanopt-example-geojson-reopt-project/.bundle/install/ruby/2.2.0/bundler/gems/urbanopt-reopt-gem-9d3a2c58ed2e/lib/files",
      "/Users/tkwasnik/github/urbanopt-example-geojson-reopt-project/.bundle/install/ruby/2.2.0/gems/openstudio-extension-0.1.3/lib/files",
      "/Users/tkwasnik/github/urbanopt-example-geojson-reopt-project/weather",
      "./files",
      "./weather",
      "../../files",
      "../../weather",
      "./"
   ],
   "hash" : "F3EDB706",
   "measure_paths" : [
      "/Users/tkwasnik/github/urbanopt-example-geojson-reopt-project/.bundle/install/ruby/2.2.0/bundler/gems/urbanopt-geojson-gem-b4618102cfc8/lib/measures",
      "/Users/tkwasnik/github/urbanopt-example-geojson-reopt-project/.bundle/install/ruby/2.2.0/gems/openstudio-common-measures-0.1.0/lib/measures",
      "/Users/tkwasnik/github/urbanopt-example-geojson-reopt-project/.bundle/install/ruby/2.2.0/gems/openstudio-model-articulation-0.1.0/lib/measures",
      "/Users/tkwasnik/github/urbanopt-example-geojson-reopt-project/.bundle/install/ruby/2.2.0/bundler/gems/urbanopt-reopt-gem-9d3a2c58ed2e/lib/measures",
      "/Users/tkwasnik/github/urbanopt-example-geojson-reopt-project/.bundle/install/ruby/2.2.0/bundler/gems/urbanopt-scenario-gem-af7c09f8ae96/lib/measures",
      "/Users/tkwasnik/github/urbanopt-example-geojson-reopt-project/.bundle/install/ruby/2.2.0/gems/openstudio-extension-0.1.3/lib/measures"
   ],
   "name" : "Residential 1",
   "run_directory" : "/Users/tkwasnik/github/urbanopt-example-geojson-reopt-project/run/baseline_scenario/3",
   "seed_file" : null,
   "started_at" : "20200103T175836Z",
   "steps" : [
      {
         "arguments" : {
            "begin_date" : "2018-01-01",
            "end_date" : "2018-12-31",
            "timesteps_per_hour" : 1
         },
         "measure_dir_name" : "set_run_period",
         "result" : {
            "completed_at" : "20200103T175836Z",
            "measure_class_name" : "SetRunPeriod",
            "measure_display_name" : "SetRunPeriod",
            "measure_name" : "set_run_period",
            "measure_taxonomy" : "Envelope.Form",
            "measure_type" : "ModelMeasure",
            "measure_uid" : "7a84292a-3975-4ab3-9284-6edabcbe750b",
            "measure_version_id" : "62323562-963d-4e61-8dc1-33935da3c01e",
            "measure_version_modified" : "20191029T231304Z",
            "measure_xml_checksum" : "2AF3A68E",
            "started_at" : "20200103T175836Z",
            "stderr" : "",
            "stdout" : "",
            "step_errors" : [],
            "step_files" : [],
            "step_info" : [],
            "step_result" : "Success",
            "step_values" : [
               {
                  "name" : "timesteps_per_hour",
                  "value" : 1
               },
               {
                  "name" : "begin_date",
                  "value" : "2018-01-01"
               },
               {
                  "name" : "end_date",
                  "value" : "2018-12-31"
               }
            ],
            "step_warnings" : []
         }
      },
      {
         "arguments" : {
            "climate_zone" : "6A",
            "weather_file_name" : "USA_NY_Buffalo-Greater.Buffalo.Intl.AP.725280_TMY3.epw"
         },
         "measure_dir_name" : "ChangeBuildingLocation",
         "result" : {
            "completed_at" : "20200103T175837Z",
            "measure_class_name" : "ChangeBuildingLocation",
            "measure_display_name" : "ChangeBuildingLocation",
            "measure_name" : "change_building_location",
            "measure_taxonomy" : "Whole Building.Space Types",
            "measure_type" : "ModelMeasure",
            "measure_uid" : "d4db4971-f5ba-11e3-a3ac-0800200c9a66",
            "measure_version_id" : "9938c101-08b8-4eaa-9eb4-4f6e5c8921b0",
            "measure_version_modified" : "20191029T231254Z",
            "measure_xml_checksum" : "057E8D9D",
            "started_at" : "20200103T175836Z",
            "stderr" : "",
            "stdout" : "[openstudio.model.YearDescription] <1> 'UseWeatherFile' is not yet a supported option for YearDescription\n[openstudio.model.YearDescription] <1> 'UseWeatherFile' is not yet a supported option for YearDescription\n",
            "step_errors" : [],
            "step_files" : [],
            "step_final_condition" : "The final weather file is Buffalo Niagara Intl Ap and the model has 3 design day objects.",
            "step_info" : [
               "city is Buffalo Niagara Intl Ap. State is NY",
               "mean dry bulb is 8.966666666666667",
               "Adding object Buffalo Niagara Intl Ap Ann Clg .4% Condns WB=>MDB",
               "Adding object Buffalo Niagara Intl Ap Ann Htg 99.6% Condns DB",
               "Adding object Buffalo Niagara Intl Ap Ann Clg .4% Condns DB=>MWB",
               "Setting Climate Zone to 6A"
            ],
            "step_initial_condition" : "No weather file is set. The model has 0 design day objects",
            "step_result" : "Success",
            "step_values" : [
               {
                  "name" : "weather_file_name",
                  "value" : "USA_NY_Buffalo-Greater.Buffalo.Intl.AP.725280_TMY3.epw"
               },
               {
                  "name" : "climate_zone",
                  "value" : "6A"
               },
               {
                  "name" : "set_year",
                  "value" : 0
               },
               {
                  "name" : "use_upstream_args",
                  "value" : true
               }
            ],
            "step_warnings" : [ "weather_file.path is ." ]
         }
      },
      {
         "arguments" : {
            "bar_division_method" : "Multiple Space Types - Individual Stories Sliced",
            "bldg_type_a" : "MidriseApartment",
            "bldg_type_a_num_units" : 0,
            "bldg_type_b" : "SmallOffice",
            "bldg_type_b_fract_bldg_area" : 0,
            "bldg_type_b_num_units" : 0,
            "bldg_type_c" : "SmallOffice",
            "bldg_type_c_fract_bldg_area" : 0,
            "bldg_type_c_num_units" : 0,
            "bldg_type_d" : "SmallOffice",
            "bldg_type_d_fract_bldg_area" : 0,
            "bldg_type_d_num_units" : 0,
            "building_rotation" : 0,
            "floor_height" : 10,
            "ns_to_ew_ratio" : 0,
            "num_stories_above_grade" : 3,
            "num_stories_below_grade" : 0,
            "party_wall_fraction" : 0,
            "single_floor_area" : 41877,
            "story_multiplier" : "None",
            "template" : "90.1-2004",
            "wwr" : 0
         },
         "measure_dir_name" : "create_bar_from_building_type_ratios",
         "result" : {
            "completed_at" : "20200103T175845Z",
            "measure_class_name" : "CreateBarFromBuildingTypeRatios",
            "measure_display_name" : "Create Bar From Building Type Ratios",
            "measure_name" : "create_bar_from_building_type_ratios",
            "measure_taxonomy" : "Envelope.Form",
            "measure_type" : "ModelMeasure",
            "measure_uid" : "6e3a14f8-c3c7-4e03-bc51-bef8a52e1a05",
            "measure_version_id" : "c56c06d4-914c-4bb0-a924-d3e790ec69a7",
            "measure_version_modified" : "20191030T020543Z",
            "measure_xml_checksum" : "2AF3A68E",
            "started_at" : "20200103T175841Z",
            "stderr" : "",
            "stdout" : "",
            "step_errors" : [],
            "step_files" : [],
            "step_final_condition" : "The building finished with 33 spaces.",
            "step_info" : [
               "0.0 value for aspect ratio will be replaced with smart default for MidriseApartment of 2.75.",
               "0.0 value for window to wall ratio will be replaced with smart default for MidriseApartment of 0.15.",
               "Creating Space Types for MidriseApartment.",
               "Intersecting surfaces, this will create additional geometry.",
               "Created Bar envlope with floor area of 125,631 (ft^2)",
               "Target party wall fraction is 0.0. Realized fraction is 0.0"
            ],
            "step_initial_condition" : "The building started with 0 spaces.",
            "step_result" : "Success",
            "step_values" : [
               {
                  "name" : "bldg_type_a",
                  "value" : "MidriseApartment"
               },
               {
                  "name" : "bldg_type_a_num_units",
                  "value" : 0
               },
               {
                  "name" : "bldg_type_b",
                  "value" : "SmallOffice"
               },
               {
                  "name" : "bldg_type_b_fract_bldg_area",
                  "value" : 0
               },
               {
                  "name" : "bldg_type_b_num_units",
                  "value" : 0
               },
               {
                  "name" : "bldg_type_c",
                  "value" : "SmallOffice"
               },
               {
                  "name" : "bldg_type_c_fract_bldg_area",
                  "value" : 0
               },
               {
                  "name" : "bldg_type_c_num_units",
                  "value" : 0
               },
               {
                  "name" : "bldg_type_d",
                  "value" : "SmallOffice"
               },
               {
                  "name" : "bldg_type_d_fract_bldg_area",
                  "value" : 0
               },
               {
                  "name" : "bldg_type_d_num_units",
                  "value" : 0
               },
               {
                  "name" : "single_floor_area",
                  "value" : 41877
               },
               {
                  "name" : "total_bldg_floor_area",
                  "value" : 10000
               },
               {
                  "name" : "floor_height",
                  "value" : 10
               },
               {
                  "name" : "num_stories_above_grade",
                  "value" : 3
               },
               {
                  "name" : "num_stories_below_grade",
                  "value" : 0
               },
               {
                  "name" : "building_rotation",
                  "value" : 0
               },
               {
                  "name" : "template",
                  "value" : "90.1-2004"
               },
               {
                  "name" : "ns_to_ew_ratio",
                  "value" : 0
               },
               {
                  "name" : "wwr",
                  "value" : 0
               },
               {
                  "name" : "party_wall_fraction",
                  "value" : 0
               },
               {
                  "name" : "party_wall_stories_north",
                  "value" : 0
               },
               {
                  "name" : "party_wall_stories_south",
                  "value" : 0
               },
               {
                  "name" : "party_wall_stories_east",
                  "value" : 0
               },
               {
                  "name" : "party_wall_stories_west",
                  "value" : 0
               },
               {
                  "name" : "bottom_story_ground_exposed_floor",
                  "value" : true
               },
               {
                  "name" : "top_story_exterior_exposed_roof",
                  "value" : true
               },
               {
                  "name" : "story_multiplier",
                  "value" : "None"
               },
               {
                  "name" : "bar_division_method",
                  "value" : "Multiple Space Types - Individual Stories Sliced"
               },
               {
                  "name" : "make_mid_story_surfaces_adiabatic",
                  "value" : false
               },
               {
                  "name" : "use_upstream_args",
                  "value" : true
               },
               {
                  "name" : "party_wall_fraction_actual",
                  "value" : 0
               }
            ],
            "step_warnings" : [
               "Could not find color for 90.1-2004 MidriseApartment Apartment",
               "Could not find color for 90.1-2004 MidriseApartment Corridor",
               "Could not find color for 90.1-2004 MidriseApartment Office",
               "User-defined single floor area was used for calculation of total building floor area"
            ]
         }
      },
      {
         "arguments" : {
            "add_hvac" : false
         },
         "measure_dir_name" : "create_typical_building_from_model",
         "name" : "create_typical_building_from_model 1",
         "result" : {
            "completed_at" : "20200103T175848Z",
            "measure_class_name" : "CreateTypicalBuildingFromModel",
            "measure_display_name" : "Create Typical Building from Model",
            "measure_name" : "create_typical_building_from_model",
            "measure_taxonomy" : "Whole Building.Space Types",
            "measure_type" : "ModelMeasure",
            "measure_uid" : "339a2e3a-273c-4494-bb50-bfe586a0647c",
            "measure_version_id" : "87ebffcf-eacc-4a82-9543-d033695df855",
            "measure_version_modified" : "20191030T020543Z",
            "measure_xml_checksum" : "EE13F09F",
            "started_at" : "20200103T175845Z",
            "stderr" : "",
            "stdout" : "",
            "step_errors" : [],
            "step_files" : [],
            "step_final_condition" : "The building finished with 935 objects.",
            "step_info" : [
               "Replacing argument named template from current measure with a value of 90.1-2004 from create_bar_from_building_type_ratios.",
               "Adding loads to space type named MidriseApartment Office - 90.1-2004",
               "Adding loads to space type named MidriseApartment Corridor - 90.1-2004",
               "Adding loads to space type named MidriseApartment Apartment - 90.1-2004",
               "Adding default construction set named Res 90.1-2004 - MidApt - ASHRAE 169-2013-6A",
               "Adding 2.0 elevators each with power of 16,055 (W), plus lights and fans.",
               "Adding Exterior Lights named Parking Areas and Drives Def (W/ft^2) with design level of 0.15 * 103,879.",
               "Adding Exterior Lights named Building Facades Def (W/ft^2) with design level of 0.2 * 9,255.",
               "Adding Exterior Lights named Main Entries Def (W/ft) with design level of 30.0 * 34.",
               "Adding Exterior Lights named Other Doors Def (W/ft) with design level of 20.0 * 19.",
               "Adding 1 MidriseApartment service water heating loops.",
               "Assigning MidriseApartment Office - 90.1-2004 Thermostat to thermal zones with MidriseApartment Office - 90.1-2004 assigned.",
               "Assigning MidriseApartment Corridor - 90.1-2004 Thermostat to thermal zones with MidriseApartment Corridor - 90.1-2004 assigned.",
               "Assigning MidriseApartment Apartment - 90.1-2004 Thermostat to thermal zones with MidriseApartment Apartment - 90.1-2004 assigned.",
               "Using OpenStudio Standards version 0.2.10 with template 90.1-2004.",
               "Loading OpenStudio Standards data for 90.1-2004",
               "MidriseApartment Office had no people, one has been created.",
               "MidriseApartment Office set occupancy to 2.11 people/1000 ft^2.",
               "MidriseApartment Office had no lights, one has been created.",
               "MidriseApartment Office set LPD to 1.1 W/ft^2.",
               "MidriseApartment Office had no electric equipment, one has been created.",
               "MidriseApartment Office set electric EPD to 0.6196632768 W/ft^2.",
               "MidriseApartment Office had no ventilation specification, one has been created.",
               "MidriseApartment Office set ventilation per area to 0.1 cfm/ft^2.",
               "MidriseApartment Office set occupancy schedule to ApartmentMidRise OCC_OFF_SCH.",
               "MidriseApartment Office set occupant activity schedule to ApartmentMidRise Activity Schedule.",
               "MidriseApartment Office set lighting schedule to ApartmentMidRise LTG_OFF_SCH_2004_2007.",
               "MidriseApartment Office set electric equipment schedule to ApartmentMidRise EQP_OFF_SCH_2004_2007.",
               "MidriseApartment Office set infiltration schedule to ApartmentMidRise INF_OFF_SCH.",
               "MidriseApartment Corridor had no lights, one has been created.",
               "MidriseApartment Corridor set LPD to 0.5 W/ft^2.",
               "MidriseApartment Corridor had no ventilation specification, one has been created.",
               "MidriseApartment Corridor set occupancy schedule to ApartmentMidRise All Off.",
               "MidriseApartment Corridor set lighting schedule to ApartmentMidRise LTG_COR_SCH_2004_2007.",
               "MidriseApartment Corridor set electric equipment schedule to ApartmentMidRise BLDG_ELEVATORS.",
               "MidriseApartment Corridor set infiltration schedule to ApartmentMidRise INF_COR_SCH.",
               "MidriseApartment Apartment had no people, one has been created.",
               "MidriseApartment Apartment set occupancy to 2.63 people/1000 ft^2.",
               "MidriseApartment Apartment had no lights, one has been created.",
               "MidriseApartment Apartment set LPD to 1.07 W/ft^2.",
               "MidriseApartment Apartment had no electric equipment, one has been created.",
               "MidriseApartment Apartment set electric EPD to 0.6196632768 W/ft^2.",
               "MidriseApartment Apartment had no ventilation specification, one has been created.",
               "MidriseApartment Apartment set ventilation to 0.35 ACH.",
               "MidriseApartment Apartment set occupancy schedule to ApartmentMidRise OCC_APT_SCH.",
               "MidriseApartment Apartment set occupant activity schedule to ApartmentMidRise Activity Schedule.",
               "MidriseApartment Apartment set lighting schedule to ApartmentMidRise LTG_APT_SCH.",
               "MidriseApartment Apartment set electric equipment schedule to ApartmentMidRise EQP_APT_SCH.",
               "MidriseApartment Apartment set infiltration schedule to ApartmentMidRise INF_APT_SCH.",
               "Adding construction set: 90.1-2004-ASHRAE 169-2013-6A-MidriseApartment--is_residentialYes",
               "Adding construction Typical Insulated Exterior Mass Floor R-15.63.",
               "Adding construction Typical Insulated Steel Framed Exterior Wall R-15.63.",
               "Adding construction Typical IEAD Roof R-15.87.",
               "Adding construction Typical Interior Floor.",
               "Adding construction Typical Interior Wall.",
               "Adding construction Typical Interior Ceiling.",
               "Adding construction Typical Insulated Carpeted 6in Slab Floor.",
               "Adding construction Typical Insulated Basement Mass Wall.",
               "Adding construction U 0.57 SHGC 0.49 Dbl Blue 6mm/6mm Air.",
               "Adding construction Typical Insulated Metal Door R-1.43.",
               "Adding construction Typical Overhead Door R-2.0.",
               "Adding construction U 1.17 SHGC 0.49 Simple Glazing Skylight U-1.17 SHGC 0.0.",
               "Adding construction Typical Interior Window.",
               "Adding construction Typical Interior Door.",
               "Adding construction Typical Interior Partition.",
               "For MidriseApartment Apartment A  - Story Ground, set infiltration rate to 0.202 cfm/ft2 exterior wall area (aka 1.8 cfm/ft2 @75Pa).",
               "For MidriseApartment Apartment A  - Story Mid, set infiltration rate to 0.202 cfm/ft2 exterior wall area (aka 1.8 cfm/ft2 @75Pa).",
               "For MidriseApartment Apartment A  - Story Top, set infiltration rate to 0.202 cfm/ft2 exterior wall area (aka 1.8 cfm/ft2 @75Pa).",
               "For MidriseApartment Apartment A end_a - Story Ground, set infiltration rate to 0.202 cfm/ft2 exterior wall area (aka 1.8 cfm/ft2 @75Pa).",
               "For MidriseApartment Apartment A end_a - Story Mid, set infiltration rate to 0.202 cfm/ft2 exterior wall area (aka 1.8 cfm/ft2 @75Pa).",
               "For MidriseApartment Apartment A end_a - Story Top, set infiltration rate to 0.202 cfm/ft2 exterior wall area (aka 1.8 cfm/ft2 @75Pa).",
               "For MidriseApartment Apartment A end_b - Story Mid, set infiltration rate to 0.202 cfm/ft2 exterior wall area (aka 1.8 cfm/ft2 @75Pa).",
               "For MidriseApartment Apartment A end_b - Story Top, set infiltration rate to 0.202 cfm/ft2 exterior wall area (aka 1.8 cfm/ft2 @75Pa).",
               "For MidriseApartment Apartment B  - Story Ground, no exterior wall area was found, no infiltration will be added.",
               "For MidriseApartment Apartment B  - Story Mid, no exterior wall area was found, no infiltration will be added.",
               "For MidriseApartment Apartment B  - Story Top, no exterior wall area was found, no infiltration will be added.",
               "For MidriseApartment Apartment B end_a - Story Ground, set infiltration rate to 0.202 cfm/ft2 exterior wall area (aka 1.8 cfm/ft2 @75Pa).",
               "For MidriseApartment Apartment B end_a - Story Mid, set infiltration rate to 0.202 cfm/ft2 exterior wall area (aka 1.8 cfm/ft2 @75Pa).",
               "For MidriseApartment Apartment B end_a - Story Top, set infiltration rate to 0.202 cfm/ft2 exterior wall area (aka 1.8 cfm/ft2 @75Pa).",
               "For MidriseApartment Apartment B end_b - Story Mid, set infiltration rate to 0.202 cfm/ft2 exterior wall area (aka 1.8 cfm/ft2 @75Pa).",
               "For MidriseApartment Apartment B end_b - Story Top, set infiltration rate to 0.202 cfm/ft2 exterior wall area (aka 1.8 cfm/ft2 @75Pa).",
               "For MidriseApartment Apartment C  - Story Ground, set infiltration rate to 0.202 cfm/ft2 exterior wall area (aka 1.8 cfm/ft2 @75Pa).",
               "For MidriseApartment Apartment C  - Story Mid, set infiltration rate to 0.202 cfm/ft2 exterior wall area (aka 1.8 cfm/ft2 @75Pa).",
               "For MidriseApartment Apartment C  - Story Top, set infiltration rate to 0.202 cfm/ft2 exterior wall area (aka 1.8 cfm/ft2 @75Pa).",
               "For MidriseApartment Apartment C end_a - Story Ground, set infiltration rate to 0.202 cfm/ft2 exterior wall area (aka 1.8 cfm/ft2 @75Pa).",
               "For MidriseApartment Apartment C end_a - Story Mid, set infiltration rate to 0.202 cfm/ft2 exterior wall area (aka 1.8 cfm/ft2 @75Pa).",
               "For MidriseApartment Apartment C end_a - Story Top, set infiltration rate to 0.202 cfm/ft2 exterior wall area (aka 1.8 cfm/ft2 @75Pa).",
               "For MidriseApartment Apartment C end_b - Story Mid, set infiltration rate to 0.202 cfm/ft2 exterior wall area (aka 1.8 cfm/ft2 @75Pa).",
               "For MidriseApartment Apartment C end_b - Story Top, set infiltration rate to 0.202 cfm/ft2 exterior wall area (aka 1.8 cfm/ft2 @75Pa).",
               "For MidriseApartment Corridor A  - Story Ground, set infiltration rate to 0.202 cfm/ft2 exterior wall area (aka 1.8 cfm/ft2 @75Pa).",
               "For MidriseApartment Corridor A end_b - Story Ground, set infiltration rate to 0.202 cfm/ft2 exterior wall area (aka 1.8 cfm/ft2 @75Pa).",
               "For MidriseApartment Corridor B  - Story Ground, no exterior wall area was found, no infiltration will be added.",
               "For MidriseApartment Corridor B end_b - Story Ground, set infiltration rate to 0.202 cfm/ft2 exterior wall area (aka 1.8 cfm/ft2 @75Pa).",
               "For MidriseApartment Corridor C  - Story Ground, set infiltration rate to 0.202 cfm/ft2 exterior wall area (aka 1.8 cfm/ft2 @75Pa).",
               "For MidriseApartment Corridor C end_b - Story Ground, set infiltration rate to 0.202 cfm/ft2 exterior wall area (aka 1.8 cfm/ft2 @75Pa).",
               "For MidriseApartment Office A  - Story Ground, set infiltration rate to 0.202 cfm/ft2 exterior wall area (aka 1.8 cfm/ft2 @75Pa).",
               "For MidriseApartment Office B  - Story Ground, no exterior wall area was found, no infiltration will be added.",
               "For MidriseApartment Office C  - Story Ground, set infiltration rate to 0.202 cfm/ft2 exterior wall area (aka 1.8 cfm/ft2 @75Pa).",
               "The building has fewer than 6 effective stories; assuming Hydraulic elevators.",
               "For MidriseApartment Apartment - 90.1-2004, floor area = 109638 ft^2.",
               "For MidriseApartment Apartment - 90.1-2004, number of spaces = 24.",
               "For MidriseApartment Apartment - 90.1-2004, number of units = 115.42075344773102.",
               "For MidriseApartment Apartment - 90.1-2004, number of people = 288.",
               "For MidriseApartment Corridor - 90.1-2004, floor area = 12450 ft^2.",
               "For MidriseApartment Corridor - 90.1-2004, number of spaces = 6.",
               "For MidriseApartment Office - 90.1-2004, floor area = 3543 ft^2.",
               "For MidriseApartment Office - 90.1-2004, number of spaces = 3.",
               "For MidriseApartment Office - 90.1-2004, number of people = 7.",
               "For MidriseApartment Apartment - 90.1-2004, adding 1.3 passenger elevators at 1 per 90.0 units.",
               "Unexpected key, can't calculate number of freight elevators from template.",
               "For MidriseApartment Corridor - 90.1-2004, adding 0.0 passenger elevators at 1 per 90.0 units.",
               "Unexpected key, can't calculate number of freight elevators from template.",
               "For MidriseApartment Office - 90.1-2004, adding 0.0 passenger elevators at 1 per 90.0 units.",
               "Unexpected key, can't calculate number of freight elevators from template.",
               "No additional passenger elevators added to model.",
               "Adding 2.0 Hydraulic elevators to the model in MidriseApartment Apartment B  - Story Ground.",
               "For MidriseApartment Apartment - 90.1-2004, floor area = 109638 ft^2.",
               "For MidriseApartment Apartment - 90.1-2004, number of spaces = 24.",
               "For MidriseApartment Apartment - 90.1-2004, number of units = 115.42075344773102.",
               "For MidriseApartment Apartment - 90.1-2004, number of people = 288.",
               "For MidriseApartment Corridor - 90.1-2004, floor area = 12450 ft^2.",
               "For MidriseApartment Corridor - 90.1-2004, number of spaces = 6.",
               "For MidriseApartment Office - 90.1-2004, floor area = 3543 ft^2.",
               "For MidriseApartment Office - 90.1-2004, number of spaces = 3.",
               "For MidriseApartment Office - 90.1-2004, number of people = 7.",
               "Facade and Landscape exterior lights shut off from {:hr=>24, :min=>0} to {:hr=>6, :min=>0}",
               "Added 0.15 W/ft^2 of lighting for 103878.6781029579 ft^2 of parking area.",
               "Added 0.2 W/ft^2 of lighting for 9255.1337105414 ft^2 of building facade area.",
               "Added 30.0 W/ft of lighting for 33.501599999999904 ft of main entry length.",
               "Added 20.0 W/ft of lighting for 18.928403999999944 ft of other doors.",
               "For MidriseApartment Apartment - 90.1-2004, floor area = 109638 ft^2.",
               "For MidriseApartment Apartment - 90.1-2004, number of spaces = 24.",
               "For MidriseApartment Apartment - 90.1-2004, number of units = 115.42075344773102.",
               "For MidriseApartment Apartment - 90.1-2004, number of people = 288.",
               "For MidriseApartment Corridor - 90.1-2004, floor area = 12450 ft^2.",
               "For MidriseApartment Corridor - 90.1-2004, number of spaces = 6.",
               "For MidriseApartment Office - 90.1-2004, floor area = 3543 ft^2.",
               "For MidriseApartment Office - 90.1-2004, number of spaces = 3.",
               "For MidriseApartment Office - 90.1-2004, number of people = 7.",
               "Added MidriseApartment Apartment - 90.1-2004 115 units Service Water Use 6.67gpm at 140F.",
               "Added water heater called 115X 50gal Electricity Water Heater - 20kBtu/hr",
               "Pipe length 20ft. For non-circulating systems, assume water heater is close to point of use.",
               "Piping length has been multiplied by 115X because 115X 50gal Electricity Water Heater - 20kBtu/hr represents 115 pieces of equipment.",
               "Added 2300ft of Uninsulated copper pipe 0.75in type L losing heat to 70F air to MidriseApartment Apartment - 90.1-2004 Service Water Loop.",
               "Added non-circulating SWH loop called MidriseApartment Apartment - 90.1-2004 Service Water Loop",
               "Started adding daylighting controls.",
               "For MidriseApartment Apartment B  - Story Ground, daylighting control not applicable because no exterior fenestration is present.",
               "For MidriseApartment Apartment B  - Story Mid, daylighting control not applicable because no exterior fenestration is present.",
               "For MidriseApartment Apartment B  - Story Top, daylighting control not applicable because no exterior fenestration is present.",
               "For MidriseApartment Corridor B  - Story Ground, daylighting control not applicable because no exterior fenestration is present.",
               "For MidriseApartment Office B  - Story Ground, daylighting control not applicable because no exterior fenestration is present.",
               "Finished adding daylighting controls.",
               "MidriseApartment Office - 90.1-2004 set heating setpoint schedule to ApartmentMidRise HTGSETP_OFF_SCH_NO_OPTIMUM.",
               "MidriseApartment Office - 90.1-2004 set cooling setpoint schedule to ApartmentMidRise CLGSETP_OFF_SCH_No_Setback.",
               "MidriseApartment Corridor - 90.1-2004 set heating setpoint schedule to ApartmentMidRise HTGSETP_APT_SCH.",
               "MidriseApartment Corridor - 90.1-2004 set cooling setpoint schedule to ApartmentMidRise CLGSETP_APT_SCH.",
               "MidriseApartment Apartment - 90.1-2004 set heating setpoint schedule to ApartmentMidRise HTGSETP_APT_SCH.",
               "MidriseApartment Apartment - 90.1-2004 set cooling setpoint schedule to ApartmentMidRise CLGSETP_APT_SCH.",
               "Cannot remove Object of type 'OS:Schedule:Day' and named 'Schedule Day 33', because that would invalidate Object of type 'OS:Schedule:Ruleset' and named 'Schedule Ruleset 3'.",
               "Cannot remove Object of type 'OS:Schedule:Day' and named 'Schedule Day 32', because that would invalidate Object of type 'OS:Schedule:Ruleset' and named 'Schedule Ruleset 2'."
            ],
            "step_initial_condition" : "The building started with 564 objects.",
            "step_result" : "Success",
            "step_values" : [
               {
                  "name" : "template",
                  "value" : "90.1-2004"
               },
               {
                  "name" : "system_type",
                  "value" : "Inferred"
               },
               {
                  "name" : "hvac_delivery_type",
                  "value" : "Forced Air"
               },
               {
                  "name" : "htg_src",
                  "value" : "NaturalGas"
               },
               {
                  "name" : "clg_src",
                  "value" : "Electricity"
               },
               {
                  "name" : "kitchen_makeup",
                  "value" : "Adjacent"
               },
               {
                  "name" : "exterior_lighting_zone",
                  "value" : "3 - All Other Areas"
               },
               {
                  "name" : "add_constructions",
                  "value" : true
               },
               {
                  "name" : "add_space_type_loads",
                  "value" : true
               },
               {
                  "name" : "add_elevators",
                  "value" : true
               },
               {
                  "name" : "add_exterior_lights",
                  "value" : true
               },
               {
                  "name" : "onsite_parking_fraction",
                  "value" : 1
               },
               {
                  "name" : "add_exhaust",
                  "value" : true
               },
               {
                  "name" : "add_swh",
                  "value" : true
               },
               {
                  "name" : "add_thermostat",
                  "value" : true
               },
               {
                  "name" : "add_hvac",
                  "value" : false
               },
               {
                  "name" : "remove_objects",
                  "value" : true
               },
               {
                  "name" : "use_upstream_args",
                  "value" : true
               },
               {
                  "name" : "enable_dst",
                  "value" : true
               }
            ],
            "step_warnings" : [
               "[openstudio.standards.Model] Find object search criteria returned 5 results, the first one will be returned. Called from /Users/tkwasnik/github/urbanopt-example-geojson-reopt-project/.bundle/install/ruby/2.2.0/gems/openstudio-standards-0.2.10/lib/openstudio-standards/standards/Standards.Model.rb:2431:in `model_find_and_add_construction'. \n Search criteria: \n {\"template\"=>\"90.1-2004\", \"climate_zone_set\"=>\"ClimateZone 6\", \"intended_surface_type\"=>\"ExteriorWindow\", \"standards_construction_type\"=>\"Metal framing (all other)\", \"building_category\"=>\"Nonresidential\"}, capacity =  \n  All results: \n {\"template\"=>\"90.1-2004\", \"climate_zone_set\"=>\"ClimateZone 6\", \"operation_type\"=>nil, \"intended_surface_type\"=>\"ExteriorWindow\", \"standards_construction_type\"=>\"Metal framing (all other)\", \"building_category\"=>\"Nonresidential\", \"construction\"=>\"U 0.57 SHGC 0.49 Dbl Blue 6mm/6mm Air\", \"orientation\"=>nil, \"minimum_percent_of_surface\"=>1.0, \"maximum_percent_of_surface\"=>10.0, \"assembly_maximum_u_value\"=>0.57, \"u_value_includes_interior_film_coefficient\"=>true, \"u_value_includes_exterior_film_coefficient\"=>true, \"assembly_maximum_f_factor\"=>nil, \"assembly_maximum_c_factor\"=>nil, \"assembly_maximum_solar_heat_gain_coefficient\"=>0.49, \"assembly_minimum_vt_shgc\"=>nil, \"notes\"=>nil}\n{\"template\"=>\"90.1-2004\", \"climate_zone_set\"=>\"ClimateZone 6\", \"operation_type\"=>nil, \"intended_surface_type\"=>\"ExteriorWindow\", \"standards_construction_type\"=>\"Metal framing (all other)\", \"building_category\"=>\"Nonresidential\", \"construction\"=>\"U 0.57 SHGC 0.39 Dbl Ref-D Clr 6mm/6mm Air\", \"orientation\"=>nil, \"minimum_percent_of_surface\"=>10.001, \"maximum_percent_of_surface\"=>20.0, \"assembly_maximum_u_value\"=>0.57, \"u_value_includes_interior_film_coefficient\"=>true, \"u_value_includes_exterior_film_coefficient\"=>true, \"assembly_maximum_f_factor\"=>nil, \"assembly_maximum_c_factor\"=>nil, \"assembly_maximum_solar_heat_gain_coefficient\"=>0.39, \"assembly_minimum_vt_shgc\"=>nil, \"notes\"=>nil}\n{\"template\"=>\"90.1-2004\", \"climate_zone_set\"=>\"ClimateZone 6\", \"operation_type\"=>nil, \"intended_surface_type\"=>\"ExteriorWindow\", \"standards_construction_type\"=>\"Metal framing (all other)\", \"building_category\"=>\"Nonresidential\", \"construction\"=>\"U 0.57 SHGC 0.39 Dbl Ref-D Clr 6mm/6mm Air\", \"orientation\"=>nil, \"minimum_percent_of_surface\"=>20.001, \"maximum_percent_of_surface\"=>30.0, \"assembly_maximum_u_value\"=>0.57, \"u_value_includes_interior_film_coefficient\"=>true, \"u_value_includes_exterior_film_coefficient\"=>true, \"assembly_maximum_f_factor\"=>nil, \"assembly_maximum_c_factor\"=>nil, \"assembly_maximum_solar_heat_gain_coefficient\"=>0.39, \"assembly_minimum_vt_shgc\"=>nil, \"notes\"=>nil}\n{\"template\"=>\"90.1-2004\", \"climate_zone_set\"=>\"ClimateZone 6\", \"operation_type\"=>nil, \"intended_surface_type\"=>\"ExteriorWindow\", \"standards_construction_type\"=>\"Metal framing (all other)\", \"building_category\"=>\"Nonresidential\", \"construction\"=>\"U 0.57 SHGC 0.39 Dbl Ref-D Clr 6mm/6mm Air\", \"orientation\"=>nil, \"minimum_percent_of_surface\"=>30.001, \"maximum_percent_of_surface\"=>40.0, \"assembly_maximum_u_value\"=>0.57, \"u_value_includes_interior_film_coefficient\"=>true, \"u_value_includes_exterior_film_coefficient\"=>true, \"assembly_maximum_f_factor\"=>nil, \"assembly_maximum_c_factor\"=>nil, \"assembly_maximum_solar_heat_gain_coefficient\"=>0.39, \"assembly_minimum_vt_shgc\"=>nil, \"notes\"=>nil}\n{\"template\"=>\"90.1-2004\", \"climate_zone_set\"=>\"ClimateZone 6\", \"operation_type\"=>nil, \"intended_surface_type\"=>\"ExteriorWindow\", \"standards_construction_type\"=>\"Metal framing (all other)\", \"building_category\"=>\"Nonresidential\", \"construction\"=>\"U 0.44 SHGC 0.20 Dbl Ref-B-H Tint 6mm/13mm Air\", \"orientation\"=>nil, \"minimum_percent_of_surface\"=>40.001, \"maximum_percent_of_surface\"=>100.0, \"assembly_maximum_u_value\"=>0.46, \"u_value_includes_interior_film_coefficient\"=>true, \"u_value_includes_exterior_film_coefficient\"=>true, \"assembly_maximum_f_factor\"=>nil, \"assembly_maximum_c_factor\"=>nil, \"assembly_maximum_solar_heat_gain_coefficient\"=>0.26, \"assembly_minimum_vt_shgc\"=>nil, \"notes\"=>nil}",
               "[openstudio.standards.ConstructionBase] Can only set the u-value of opaque constructions or simple glazing. U 0.57 SHGC 0.49 Dbl Blue 6mm/6mm Air is not opaque or simple glazing.",
               "[openstudio.standards.Model] Find object search criteria returned 5 results, the first one will be returned. Called from /Users/tkwasnik/github/urbanopt-example-geojson-reopt-project/.bundle/install/ruby/2.2.0/gems/openstudio-standards-0.2.10/lib/openstudio-standards/standards/Standards.Model.rb:2431:in `model_find_and_add_construction'. \n Search criteria: \n {\"template\"=>\"90.1-2004\", \"climate_zone_set\"=>\"ClimateZone 6\", \"intended_surface_type\"=>\"ExteriorWindow\", \"standards_construction_type\"=>\"Metal framing (all other)\", \"building_category\"=>\"Nonresidential\"}, capacity =  \n  All results: \n {\"template\"=>\"90.1-2004\", \"climate_zone_set\"=>\"ClimateZone 6\", \"operation_type\"=>nil, \"intended_surface_type\"=>\"ExteriorWindow\", \"standards_construction_type\"=>\"Metal framing (all other)\", \"building_category\"=>\"Nonresidential\", \"construction\"=>\"U 0.57 SHGC 0.49 Dbl Blue 6mm/6mm Air\", \"orientation\"=>nil, \"minimum_percent_of_surface\"=>1.0, \"maximum_percent_of_surface\"=>10.0, \"assembly_maximum_u_value\"=>0.57, \"u_value_includes_interior_film_coefficient\"=>true, \"u_value_includes_exterior_film_coefficient\"=>true, \"assembly_maximum_f_factor\"=>nil, \"assembly_maximum_c_factor\"=>nil, \"assembly_maximum_solar_heat_gain_coefficient\"=>0.49, \"assembly_minimum_vt_shgc\"=>nil, \"notes\"=>nil}\n{\"template\"=>\"90.1-2004\", \"climate_zone_set\"=>\"ClimateZone 6\", \"operation_type\"=>nil, \"intended_surface_type\"=>\"ExteriorWindow\", \"standards_construction_type\"=>\"Metal framing (all other)\", \"building_category\"=>\"Nonresidential\", \"construction\"=>\"U 0.57 SHGC 0.39 Dbl Ref-D Clr 6mm/6mm Air\", \"orientation\"=>nil, \"minimum_percent_of_surface\"=>10.001, \"maximum_percent_of_surface\"=>20.0, \"assembly_maximum_u_value\"=>0.57, \"u_value_includes_interior_film_coefficient\"=>true, \"u_value_includes_exterior_film_coefficient\"=>true, \"assembly_maximum_f_factor\"=>nil, \"assembly_maximum_c_factor\"=>nil, \"assembly_maximum_solar_heat_gain_coefficient\"=>0.39, \"assembly_minimum_vt_shgc\"=>nil, \"notes\"=>nil}\n{\"template\"=>\"90.1-2004\", \"climate_zone_set\"=>\"ClimateZone 6\", \"operation_type\"=>nil, \"intended_surface_type\"=>\"ExteriorWindow\", \"standards_construction_type\"=>\"Metal framing (all other)\", \"building_category\"=>\"Nonresidential\", \"construction\"=>\"U 0.57 SHGC 0.39 Dbl Ref-D Clr 6mm/6mm Air\", \"orientation\"=>nil, \"minimum_percent_of_surface\"=>20.001, \"maximum_percent_of_surface\"=>30.0, \"assembly_maximum_u_value\"=>0.57, \"u_value_includes_interior_film_coefficient\"=>true, \"u_value_includes_exterior_film_coefficient\"=>true, \"assembly_maximum_f_factor\"=>nil, \"assembly_maximum_c_factor\"=>nil, \"assembly_maximum_solar_heat_gain_coefficient\"=>0.39, \"assembly_minimum_vt_shgc\"=>nil, \"notes\"=>nil}\n{\"template\"=>\"90.1-2004\", \"climate_zone_set\"=>\"ClimateZone 6\", \"operation_type\"=>nil, \"intended_surface_type\"=>\"ExteriorWindow\", \"standards_construction_type\"=>\"Metal framing (all other)\", \"building_category\"=>\"Nonresidential\", \"construction\"=>\"U 0.57 SHGC 0.39 Dbl Ref-D Clr 6mm/6mm Air\", \"orientation\"=>nil, \"minimum_percent_of_surface\"=>30.001, \"maximum_percent_of_surface\"=>40.0, \"assembly_maximum_u_value\"=>0.57, \"u_value_includes_interior_film_coefficient\"=>true, \"u_value_includes_exterior_film_coefficient\"=>true, \"assembly_maximum_f_factor\"=>nil, \"assembly_maximum_c_factor\"=>nil, \"assembly_maximum_solar_heat_gain_coefficient\"=>0.39, \"assembly_minimum_vt_shgc\"=>nil, \"notes\"=>nil}\n{\"template\"=>\"90.1-2004\", \"climate_zone_set\"=>\"ClimateZone 6\", \"operation_type\"=>nil, \"intended_surface_type\"=>\"ExteriorWindow\", \"standards_construction_type\"=>\"Metal framing (all other)\", \"building_category\"=>\"Nonresidential\", \"construction\"=>\"U 0.44 SHGC 0.20 Dbl Ref-B-H Tint 6mm/13mm Air\", \"orientation\"=>nil, \"minimum_percent_of_surface\"=>40.001, \"maximum_percent_of_surface\"=>100.0, \"assembly_maximum_u_value\"=>0.46, \"u_value_includes_interior_film_coefficient\"=>true, \"u_value_includes_exterior_film_coefficient\"=>true, \"assembly_maximum_f_factor\"=>nil, \"assembly_maximum_c_factor\"=>nil, \"assembly_maximum_solar_heat_gain_coefficient\"=>0.26, \"assembly_minimum_vt_shgc\"=>nil, \"notes\"=>nil}",
               "[openstudio.standards.Model] Find object search criteria returned 5 results, the first one will be returned. Called from /Users/tkwasnik/github/urbanopt-example-geojson-reopt-project/.bundle/install/ruby/2.2.0/gems/openstudio-standards-0.2.10/lib/openstudio-standards/standards/Standards.Model.rb:2431:in `model_find_and_add_construction'. \n Search criteria: \n {\"template\"=>\"90.1-2004\", \"climate_zone_set\"=>\"ClimateZone 6\", \"intended_surface_type\"=>\"GlassDoor\", \"standards_construction_type\"=>\"Metal framing (entrance door)\", \"building_category\"=>\"Nonresidential\"}, capacity =  \n  All results: \n {\"template\"=>\"90.1-2004\", \"climate_zone_set\"=>\"ClimateZone 6\", \"operation_type\"=>nil, \"intended_surface_type\"=>\"GlassDoor\", \"standards_construction_type\"=>\"Metal framing (entrance door)\", \"building_category\"=>\"Nonresidential\", \"construction\"=>\"U 0.57 SHGC 0.49 Dbl Blue 6mm/6mm Air\", \"orientation\"=>nil, \"minimum_percent_of_surface\"=>1.0, \"maximum_percent_of_surface\"=>10.0, \"assembly_maximum_u_value\"=>0.57, \"u_value_includes_interior_film_coefficient\"=>true, \"u_value_includes_exterior_film_coefficient\"=>true, \"assembly_maximum_f_factor\"=>nil, \"assembly_maximum_c_factor\"=>nil, \"assembly_maximum_solar_heat_gain_coefficient\"=>0.49, \"assembly_minimum_vt_shgc\"=>nil, \"notes\"=>nil}\n{\"template\"=>\"90.1-2004\", \"climate_zone_set\"=>\"ClimateZone 6\", \"operation_type\"=>nil, \"intended_surface_type\"=>\"GlassDoor\", \"standards_construction_type\"=>\"Metal framing (entrance door)\", \"building_category\"=>\"Nonresidential\", \"construction\"=>\"U 0.57 SHGC 0.39 Dbl Ref-D Clr 6mm/6mm Air\", \"orientation\"=>nil, \"minimum_percent_of_surface\"=>10.001, \"maximum_percent_of_surface\"=>20.0, \"assembly_maximum_u_value\"=>0.57, \"u_value_includes_interior_film_coefficient\"=>true, \"u_value_includes_exterior_film_coefficient\"=>true, \"assembly_maximum_f_factor\"=>nil, \"assembly_maximum_c_factor\"=>nil, \"assembly_maximum_solar_heat_gain_coefficient\"=>0.39, \"assembly_minimum_vt_shgc\"=>nil, \"notes\"=>nil}\n{\"template\"=>\"90.1-2004\", \"climate_zone_set\"=>\"ClimateZone 6\", \"operation_type\"=>nil, \"intended_surface_type\"=>\"GlassDoor\", \"standards_construction_type\"=>\"Metal framing (entrance door)\", \"building_category\"=>\"Nonresidential\", \"construction\"=>\"U 0.57 SHGC 0.39 Dbl Ref-D Clr 6mm/6mm Air\", \"orientation\"=>nil, \"minimum_percent_of_surface\"=>20.001, \"maximum_percent_of_surface\"=>30.0, \"assembly_maximum_u_value\"=>0.57, \"u_value_includes_interior_film_coefficient\"=>true, \"u_value_includes_exterior_film_coefficient\"=>true, \"assembly_maximum_f_factor\"=>nil, \"assembly_maximum_c_factor\"=>nil, \"assembly_maximum_solar_heat_gain_coefficient\"=>0.39, \"assembly_minimum_vt_shgc\"=>nil, \"notes\"=>nil}\n{\"template\"=>\"90.1-2004\", \"climate_zone_set\"=>\"ClimateZone 6\", \"operation_type\"=>nil, \"intended_surface_type\"=>\"GlassDoor\", \"standards_construction_type\"=>\"Metal framing (entrance door)\", \"building_category\"=>\"Nonresidential\", \"construction\"=>\"U 0.57 SHGC 0.39 Dbl Ref-D Clr 6mm/6mm Air\", \"orientation\"=>nil, \"minimum_percent_of_surface\"=>30.001, \"maximum_percent_of_surface\"=>40.0, \"assembly_maximum_u_value\"=>0.57, \"u_value_includes_interior_film_coefficient\"=>true, \"u_value_includes_exterior_film_coefficient\"=>true, \"assembly_maximum_f_factor\"=>nil, \"assembly_maximum_c_factor\"=>nil, \"assembly_maximum_solar_heat_gain_coefficient\"=>0.39, \"assembly_minimum_vt_shgc\"=>nil, \"notes\"=>nil}\n{\"template\"=>\"90.1-2004\", \"climate_zone_set\"=>\"ClimateZone 6\", \"operation_type\"=>nil, \"intended_surface_type\"=>\"GlassDoor\", \"standards_construction_type\"=>\"Metal framing (entrance door)\", \"building_category\"=>\"Nonresidential\", \"construction\"=>\"U 0.44 SHGC 0.20 Dbl Ref-B-H Tint 6mm/13mm Air\", \"orientation\"=>nil, \"minimum_percent_of_surface\"=>40.001, \"maximum_percent_of_surface\"=>100.0, \"assembly_maximum_u_value\"=>0.46, \"u_value_includes_interior_film_coefficient\"=>true, \"u_value_includes_exterior_film_coefficient\"=>true, \"assembly_maximum_f_factor\"=>nil, \"assembly_maximum_c_factor\"=>nil, \"assembly_maximum_solar_heat_gain_coefficient\"=>0.26, \"assembly_minimum_vt_shgc\"=>nil, \"notes\"=>nil}",
               "[openstudio.model.Model] In model_add_typical, num_water_heaters = 115"
            ]
         }
      },
      {
         "arguments" : {
            "blend_method" : "Building Story"
         },
         "measure_dir_name" : "blended_space_type_from_model",
         "result" : {
            "completed_at" : "20200103T175848Z",
            "measure_class_name" : "BlendedSpaceTypeFromModel",
            "measure_display_name" : "Blended Space Type from Model",
            "measure_name" : "blended_space_type_from_model",
            "measure_taxonomy" : "Whole Building.Space Types",
            "measure_type" : "ModelMeasure",
            "measure_uid" : "667c2f1f-0927-4dbd-a7be-1087b5c15181",
            "measure_version_id" : "6822700e-3ee7-47bf-8bec-d90833ec1968",
            "measure_version_modified" : "20191030T020542Z",
            "measure_xml_checksum" : "28AD5222",
            "started_at" : "20200103T175848Z",
            "stderr" : "",
            "stdout" : "",
            "step_errors" : [],
            "step_files" : [],
            "step_final_condition" : "The final building uses 3 spaces types.",
            "step_info" : [
               "Story Ground area is 41,877.00 ft^2, number of people is 76.",
               "Story Ground accounts for 3 space types.",
               "Blending space type MidriseApartment Apartment - 90.1-2004 Story Ground. Floor area ratio is 0.618. People ratio is 0.901",
               "Blending space type MidriseApartment Office - 90.1-2004 Story Ground. Floor area ratio is 0.085. People ratio is 0.099",
               "Blending space type MidriseApartment Corridor - 90.1-2004 Story Ground. Floor area ratio is 0.297. People ratio is 0.0",
               "Blending space MidriseApartment Apartment C  - Story Ground. Floor area ratio is 0.07. People ratio is 0.102",
               "Blending space MidriseApartment Apartment B end_a - Story Ground. Floor area ratio is 0.033. People ratio is 0.049",
               "Blending space MidriseApartment Apartment A  - Story Ground. Floor area ratio is 0.07. People ratio is 0.102",
               "Blending space MidriseApartment Apartment A end_a - Story Ground. Floor area ratio is 0.005. People ratio is 0.008",
               "Blending space MidriseApartment Apartment B  - Story Ground. Floor area ratio is 0.434. People ratio is 0.633",
               "Blending space MidriseApartment Apartment C end_a - Story Ground. Floor area ratio is 0.005. People ratio is 0.008",
               "Blending space MidriseApartment Office C  - Story Ground. Floor area ratio is 0.01. People ratio is 0.012",
               "Blending space MidriseApartment Office A  - Story Ground. Floor area ratio is 0.01. People ratio is 0.012",
               "Blending space MidriseApartment Corridor B end_b - Story Ground. Floor area ratio is 0.033. People ratio is 0.0",
               "Blending space MidriseApartment Corridor A end_b - Story Ground. Floor area ratio is 0.005. People ratio is 0.0",
               "Blending space MidriseApartment Corridor C  - Story Ground. Floor area ratio is 0.031. People ratio is 0.0",
               "Blending space MidriseApartment Corridor A  - Story Ground. Floor area ratio is 0.031. People ratio is 0.0",
               "Blending space MidriseApartment Corridor C end_b - Story Ground. Floor area ratio is 0.005. People ratio is 0.0",
               "Story Mid area is 41,877.00 ft^2, number of people is 110.",
               "Story Mid accounts for 1 space types.",
               "Blending space type MidriseApartment Apartment - 90.1-2004 Story Mid. Floor area ratio is 1.0. People ratio is 1.0",
               "Blending space MidriseApartment Apartment C end_b - Story Mid. Floor area ratio is 0.005. People ratio is 0.005",
               "Blending space MidriseApartment Apartment A end_b - Story Mid. Floor area ratio is 0.005. People ratio is 0.005",
               "Blending space MidriseApartment Apartment C  - Story Mid. Floor area ratio is 0.111. People ratio is 0.111",
               "Blending space MidriseApartment Apartment A end_a - Story Mid. Floor area ratio is 0.005. People ratio is 0.005",
               "Blending space MidriseApartment Apartment C end_a - Story Mid. Floor area ratio is 0.005. People ratio is 0.005",
               "Blending space MidriseApartment Apartment B end_a - Story Mid. Floor area ratio is 0.033. People ratio is 0.033",
               "Blending space MidriseApartment Apartment B end_b - Story Mid. Floor area ratio is 0.033. People ratio is 0.033",
               "Blending space MidriseApartment Apartment A  - Story Mid. Floor area ratio is 0.111. People ratio is 0.111",
               "Story Top area is 41,877.00 ft^2, number of people is 110.",
               "Story Top accounts for 1 space types.",
               "Blending space type MidriseApartment Apartment - 90.1-2004 Story Top. Floor area ratio is 1.0. People ratio is 1.0",
               "Blending space MidriseApartment Apartment C end_b - Story Top. Floor area ratio is 0.005. People ratio is 0.005",
               "Blending space MidriseApartment Apartment B end_b - Story Top. Floor area ratio is 0.033. People ratio is 0.033",
               "Blending space MidriseApartment Apartment B end_a - Story Top. Floor area ratio is 0.033. People ratio is 0.033",
               "Blending space MidriseApartment Apartment A  - Story Top. Floor area ratio is 0.111. People ratio is 0.111",
               "Blending space MidriseApartment Apartment A end_a - Story Top. Floor area ratio is 0.005. People ratio is 0.005",
               "Blending space MidriseApartment Apartment C end_a - Story Top. Floor area ratio is 0.005. People ratio is 0.005",
               "Blending space MidriseApartment Apartment C  - Story Top. Floor area ratio is 0.111. People ratio is 0.111",
               "Blending space MidriseApartment Apartment A end_b - Story Top. Floor area ratio is 0.005. People ratio is 0.005"
            ],
            "step_initial_condition" : "The initial building uses 5 spaces types.",
            "step_result" : "Success",
            "step_values" : [
               {
                  "name" : "blend_method",
                  "value" : "Building Story"
               }
            ],
            "step_warnings" : []
         }
      },
      {
         "arguments" : {
            "feature_id" : "3",
            "geojson_file" : "/Users/tkwasnik/github/urbanopt-example-geojson-reopt-project/example_project.json",
            "surrounding_buildings" : "ShadingOnly"
         },
         "measure_dir_name" : "urban_geometry_creation",
         "result" : {
            "completed_at" : "20200103T175850Z",
            "measure_class_name" : "UrbanGeometryCreation",
            "measure_display_name" : "UrbanGeometryCreation",
            "measure_name" : "urban_geometry_creation",
            "measure_taxonomy" : "Envelope.Form",
            "measure_type" : "ModelMeasure",
            "measure_uid" : "5ab85d6b-c9af-4361-8ab9-613ee99a5666",
            "measure_version_id" : "0808dbbe-ec8a-46c7-b416-cbae39e2b06c",
            "measure_version_modified" : "20190523T021410Z",
            "measure_xml_checksum" : "D254E772",
            "started_at" : "20200103T175849Z",
            "stderr" : "",
            "stdout" : "",
            "step_errors" : [],
            "step_files" : [],
            "step_info" : [
               "Min_lat = 42.81329273502644, min_lon = -78.85015657149653",
               "13 nearby buildings found",
               "Intersecting surfaces",
               "Matching surfaces",
               "Changing adjacent surfaces to adiabatic"
            ],
            "step_result" : "Success",
            "step_values" : [
               {
                  "name" : "geojson_file",
                  "value" : "/Users/tkwasnik/github/urbanopt-example-geojson-reopt-project/example_project.json"
               },
               {
                  "name" : "feature_id",
                  "value" : "3"
               },
               {
                  "name" : "surrounding_buildings",
                  "value" : "ShadingOnly"
               }
            ],
            "step_warnings" : [
               "Surface elevation not set for building 'Residential 1'",
               "Reversing floor print",
               "Reversing floor print",
               "Reversing floor print",
               "Reversing floor print",
               "Reversing floor print",
               "Reversing floor print",
               "Reversing floor print",
               "Reversing floor print",
               "Reversing floor print",
               "Reversing floor print",
               "Reversing floor print",
               "Reversing floor print",
               "Reversing floor print",
               "Reversing floor print",
               "Reversing floor print"
            ]
         }
      },
      {
         "arguments" : {
            "add_constructions" : false,
            "add_elevators" : false,
            "add_exhaust" : false,
            "add_exterior_lights" : false,
            "add_hvac" : true,
            "add_space_type_loads" : false,
            "add_swh" : false,
            "remove_objects" : false,
            "system_type" : "Inferred",
            "template" : "90.1-2004",
            "use_upstream_args" : false
         },
         "measure_dir_name" : "create_typical_building_from_model",
         "name" : "create_typical_building_from_model 2",
         "result" : {
            "completed_at" : "20200103T175857Z",
            "measure_class_name" : "CreateTypicalBuildingFromModel",
            "measure_display_name" : "Create Typical Building from Model",
            "measure_name" : "create_typical_building_from_model",
            "measure_taxonomy" : "Whole Building.Space Types",
            "measure_type" : "ModelMeasure",
            "measure_uid" : "339a2e3a-273c-4494-bb50-bfe586a0647c",
            "measure_version_id" : "87ebffcf-eacc-4a82-9543-d033695df855",
            "measure_version_modified" : "20191030T020543Z",
            "measure_xml_checksum" : "EE13F09F",
            "started_at" : "20200103T175850Z",
            "stderr" : "",
            "stdout" : "[utilities.geometry.join] <1> Union has inner loops\n[utilities.geometry.joinAll] <1> Expected polygons to join together\n[utilities.geometry.join] <1> Union has inner loops\n[utilities.geometry.joinAll] <1> Expected polygons to join together\n[utilities.geometry.join] <1> Union has inner loops\n[utilities.geometry.joinAll] <1> Expected polygons to join together\n[utilities.geometry.join] <1> Union has inner loops\n[utilities.geometry.joinAll] <1> Expected polygons to join together\n[utilities.geometry.join] <1> Union has inner loops\n[utilities.geometry.joinAll] <1> Expected polygons to join together\n[utilities.geometry.join] <1> Union has inner loops\n[utilities.geometry.joinAll] <1> Expected polygons to join together\n",
            "step_errors" : [],
            "step_files" : [],
            "step_final_condition" : "The building finished with 819 objects.",
            "step_info" : [
               "Assigning Story Top Blended Space Type Thermostat to thermal zones with Story Top Blended Space Type assigned.",
               "Assigning Story Mid Blended Space Type Thermostat to thermal zones with Story Mid Blended Space Type assigned.",
               "Assigning Story Ground Blended Space Type Thermostat to thermal zones with Story Ground Blended Space Type assigned.",
               "Using OpenStudio Standards version 0.2.10 with template 90.1-2004.",
               "Loading OpenStudio Standards data for 90.1-2004",
               "Started adding daylighting controls.",
               "Finished adding daylighting controls.",
               "Story Top Blended Space Type set heating setpoint schedule to ApartmentMidRise HTGSETP_APT_SCH.",
               "Story Top Blended Space Type set cooling setpoint schedule to ApartmentMidRise CLGSETP_APT_SCH.",
               "Story Mid Blended Space Type set heating setpoint schedule to ApartmentMidRise HTGSETP_APT_SCH.",
               "Story Mid Blended Space Type set cooling setpoint schedule to ApartmentMidRise CLGSETP_APT_SCH.",
               "Story Ground Blended Space Type set heating setpoint schedule to ApartmentMidRise HTGSETP_APT_SCH.",
               "Story Ground Blended Space Type set cooling setpoint schedule to ApartmentMidRise CLGSETP_APT_SCH.",
               "Final system type group: occ = residential, area = 125567 ft2, num stories = 3, zones:",
               "--- Building Story 1 ThermalZone, Building Story 2 ThermalZone, Building Story 3 ThermalZone",
               "System type is PTAC for Residential building of size 125567 ft^2 and 3 stories, and lookups {\"template\"=>\"90.1-2004\", \"size_category\"=>\"res_small\", \"heating_source\"=>\"NaturalGas\", \"cooling_source\"=>\"Electricity\", \"delivery_type\"=>\"air\"}.",
               "--- NaturalGas for main heating",
               "--- Electricity for cooling",
               "Determining which zones are served by the primary vs. secondary HVAC system.",
               "For zone Building Story 1 ThermalZone, the weekly operating hrs 10.13 hrs - average weekly operating hrs 10.13 hrs = 0.0 hrs < tolerance of 40 hrs, stopping elimination process.",
               "For zone Building Story 1 ThermalZone, the internal load 6.69 Btu/hr*ft^2 - average internal load 6.69 Btu/hr*ft^2 = 0.0 Btu/hr*ft^2 < tolerance of 10 Btu/hr*ft^2, stopping elimination process.",
               "Primary system zones = Building Story 1 ThermalZone.",
               "Adding hot water loop.",
               "New high temperature hot water loop created.",
               "Adding PTAC for Building Story 1 ThermalZone.",
               "Determining which zones are served by the primary vs. secondary HVAC system.",
               "For zone Building Story 2 ThermalZone, the weekly operating hrs 10.13 hrs - average weekly operating hrs 10.13 hrs = 0.0 hrs < tolerance of 40 hrs, stopping elimination process.",
               "For zone Building Story 2 ThermalZone, the internal load 6.69 Btu/hr*ft^2 - average internal load 6.69 Btu/hr*ft^2 = 0.0 Btu/hr*ft^2 < tolerance of 10 Btu/hr*ft^2, stopping elimination process.",
               "Primary system zones = Building Story 2 ThermalZone.",
               "Adding PTAC for Building Story 2 ThermalZone.",
               "Determining which zones are served by the primary vs. secondary HVAC system.",
               "For zone Building Story 3 ThermalZone, the weekly operating hrs 10.13 hrs - average weekly operating hrs 10.13 hrs = 0.0 hrs < tolerance of 40 hrs, stopping elimination process.",
               "For zone Building Story 3 ThermalZone, the internal load 7.78 Btu/hr*ft^2 - average internal load 7.78 Btu/hr*ft^2 = 0.0 Btu/hr*ft^2 < tolerance of 10 Btu/hr*ft^2, stopping elimination process.",
               "Primary system zones = Building Story 3 ThermalZone.",
               "Adding PTAC for Building Story 3 ThermalZone.",
               "Set sizing factors to 1.25 for heating and 1.15 for cooling.",
               "Running simulation /Users/tkwasnik/github/urbanopt-example-geojson-reopt-project/run/baseline_scenario/3/006_create_typical_building_from_model/SR1.",
               "Finished run.",
               "Started applying multizone vav OA sizing.",
               "Finished applying multizone vav OA sizing.",
               "Started applying prototype HVAC assumptions.",
               "For Prototype: Building Story 1 ThermalZone PTAC Fan: 7929cfm; Pressure Rise = 1.33in w.c.",
               "For Prototype: Building Story 2 ThermalZone PTAC Fan: 16044cfm; Pressure Rise = 1.33in w.c.",
               "For Prototype: Building Story 3 ThermalZone PTAC Fan: 24397cfm; Pressure Rise = 1.33in w.c.",
               "For Building Story 1 ThermalZone PTAC Fan: allowed_hp = 3.32HP; motor eff = 29.0%; total fan eff = 16% based on 7929 cfm.",
               "For Building Story 2 ThermalZone PTAC Fan: allowed_hp = 6.71HP; motor eff = 29.0%; total fan eff = 16% based on 16044 cfm.",
               "For Building Story 3 ThermalZone PTAC Fan: allowed_hp = 10.21HP; motor eff = 29.0%; total fan eff = 16% based on 24397 cfm.",
               "Finished applying prototype HVAC assumptions.",
               "Started applying HVAC efficiency standards.",
               "For Building Story 1 ThermalZone PTAC Fan: motor eff = 29.0%; assumed to represent several < 1 HP motors.",
               "For Building Story 2 ThermalZone PTAC Fan: motor eff = 29.0%; assumed to represent several < 1 HP motors.",
               "For Building Story 3 ThermalZone PTAC Fan: motor eff = 29.0%; assumed to represent several < 1 HP motors.",
               "For Hot Water Loop Pump: brake hp = 6.18HP, motor nameplate = 8.0HP, motor eff = 89.5%.",
               "For MidriseApartment Apartment - 90.1-2004 Service Water Loop Water Mains Pressure Driven: brake hp = 0.0HP, motor nameplate = 1.0HP, motor eff = 82.5%.",
               "For Building Story 1 ThermalZone PTAC 1spd DX AC Clg Coil: AirCooled All Other PTAC Capacity = 242kBtu/hr; EER = 9.3",
               "For Building Story 2 ThermalZone PTAC 1spd DX AC Clg Coil: AirCooled All Other PTAC Capacity = 437kBtu/hr; EER = 9.3",
               "For Building Story 3 ThermalZone PTAC 1spd DX AC Clg Coil: AirCooled All Other PTAC Capacity = 690kBtu/hr; EER = 9.3",
               "For 90.1-2004: Boiler: Gas Hot Water Capacity = 3127kBtu/hr; Thermal Efficiency = 0.75",
               "For 90.1-2004: 115X 50gal Electricity Water Heater - 20kBtu/hr 1.0 Therm Eff; thermal efficiency = 1.0, skin-loss UA = 4Btu/hr",
               "Finished applying HVAC efficiency standards."
            ],
            "step_initial_condition" : "The building started with 665 objects.",
            "step_result" : "Success",
            "step_values" : [
               {
                  "name" : "template",
                  "value" : "90.1-2004"
               },
               {
                  "name" : "system_type",
                  "value" : "Inferred"
               },
               {
                  "name" : "hvac_delivery_type",
                  "value" : "Forced Air"
               },
               {
                  "name" : "htg_src",
                  "value" : "NaturalGas"
               },
               {
                  "name" : "clg_src",
                  "value" : "Electricity"
               },
               {
                  "name" : "kitchen_makeup",
                  "value" : "Adjacent"
               },
               {
                  "name" : "exterior_lighting_zone",
                  "value" : "3 - All Other Areas"
               },
               {
                  "name" : "add_constructions",
                  "value" : false
               },
               {
                  "name" : "add_space_type_loads",
                  "value" : false
               },
               {
                  "name" : "add_elevators",
                  "value" : false
               },
               {
                  "name" : "add_exterior_lights",
                  "value" : false
               },
               {
                  "name" : "onsite_parking_fraction",
                  "value" : 1
               },
               {
                  "name" : "add_exhaust",
                  "value" : false
               },
               {
                  "name" : "add_swh",
                  "value" : false
               },
               {
                  "name" : "add_thermostat",
                  "value" : true
               },
               {
                  "name" : "add_hvac",
                  "value" : true
               },
               {
                  "name" : "remove_objects",
                  "value" : false
               },
               {
                  "name" : "use_upstream_args",
                  "value" : false
               },
               {
                  "name" : "enable_dst",
                  "value" : true
               }
            ],
            "step_warnings" : [
               "[openstudio.standards.Model] Find object search criteria returned 2 results, the first one will be returned. Called from /Users/tkwasnik/github/urbanopt-example-geojson-reopt-project/.bundle/install/ruby/2.2.0/gems/openstudio-standards-0.2.10/lib/openstudio-standards/prototypes/common/objects/Prototype.Model.hvac.rb:491:in `model_typical_hvac_system_type'. \n Search criteria: \n {\"template\"=>\"90.1-2004\", \"building_category\"=>\"Residential\"}, capacity =  \n  All results: \n {\"template\"=>\"90.1-2004\", \"building_category\"=>\"Residential\", \"minimum_floors\"=>0.0, \"maximum_floors\"=>3.0, \"minimum_area\"=>0.0, \"maximum_area\"=>99999999.0, \"size_category\"=>\"res_small\"}\n{\"template\"=>\"90.1-2004\", \"building_category\"=>\"Residential\", \"minimum_floors\"=>3.0, \"maximum_floors\"=>999.0, \"minimum_area\"=>0.0, \"maximum_area\"=>99999999.0, \"size_category\"=>\"res_med\"}"
            ]
         }
      },
      {
         "arguments" : {
            "__SKIP__" : true,
            "r_value" : 10
         },
         "measure_dir_name" : "IncreaseInsulationRValueForExteriorWalls",
         "result" : {
            "completed_at" : "20200103T175857Z",
            "measure_class_name" : "IncreaseInsulationRValueForExteriorWalls",
            "measure_display_name" : "Increase R-value of Insulation for Exterior Walls to a Specific Value",
            "measure_name" : "increase_insulation_r_value_for_exterior_walls",
            "measure_taxonomy" : "Envelope.Opaque",
            "measure_type" : "ModelMeasure",
            "measure_uid" : "3fdf9c39-d305-449b-a4b5-077166af5a67",
            "measure_version_id" : "185d23d1-67c9-435c-97d2-f28e7f80632b",
            "measure_version_modified" : "20191029T231254Z",
            "measure_xml_checksum" : "0F858D9E",
            "started_at" : "20200103T175857Z",
            "stderr" : "",
            "stdout" : "",
            "step_errors" : [],
            "step_files" : [],
            "step_info" : [],
            "step_result" : "Skip",
            "step_values" : [],
            "step_warnings" : []
         }
      },
      {
         "arguments" : {
            "__SKIP__" : true,
            "elecequip_power_reduction_percent" : 20
         },
         "measure_dir_name" : "ReduceElectricEquipmentLoadsByPercentage",
         "result" : {
            "completed_at" : "20200103T175857Z",
            "measure_class_name" : "ReduceElectricEquipmentLoadsByPercentage",
            "measure_display_name" : "Reduce Electric Equipment Loads by Percentage",
            "measure_name" : "reduce_electric_equipment_loads_by_percentage",
            "measure_taxonomy" : "Equipment.Electric Equipment",
            "measure_type" : "ModelMeasure",
            "measure_uid" : "0902e302-70db-4339-99b0-17f08bc93629",
            "measure_version_id" : "7be9778a-f317-46fb-b48a-4159ce1ec158",
            "measure_version_modified" : "20191029T231304Z",
            "measure_xml_checksum" : "F9A5B8F0",
            "started_at" : "20200103T175857Z",
            "stderr" : "",
            "stdout" : "",
            "step_errors" : [],
            "step_files" : [],
            "step_info" : [],
            "step_result" : "Skip",
            "step_values" : [],
            "step_warnings" : []
         }
      },
      {
         "arguments" : {
            "__SKIP__" : true,
            "lighting_power_reduction_percent" : 30
         },
         "measure_dir_name" : "ReduceLightingLoadsByPercentage",
         "result" : {
            "completed_at" : "20200103T175857Z",
            "measure_class_name" : "ReduceLightingLoadsByPercentage",
            "measure_display_name" : "Reduce Lighting Loads by Percentage",
            "measure_name" : "reduce_lighting_loads_by_percentage",
            "measure_taxonomy" : "Electric Lighting.Lighting Equipment",
            "measure_type" : "ModelMeasure",
            "measure_uid" : "791f3404-a28b-4a80-ba3f-e15b339e39ea",
            "measure_version_id" : "1da578d2-2b29-4536-9382-08364c5d5219",
            "measure_version_modified" : "20191029T231304Z",
            "measure_xml_checksum" : "293730A7",
            "started_at" : "20200103T175857Z",
            "stderr" : "",
            "stdout" : "",
            "step_errors" : [],
            "step_files" : [],
            "step_info" : [],
            "step_result" : "Skip",
            "step_values" : [],
            "step_warnings" : []
         }
      },
      {
         "arguments" : {
            "feature_id" : "3",
            "feature_name" : "Residential 1",
            "feature_type" : "Building"
         },
         "measure_dir_name" : "default_feature_reports",
         "result" : {
            "completed_at" : "20200103T175919Z",
            "measure_class_name" : "DefaultFeatureReports",
            "measure_display_name" : "DefaultFeatureReports",
            "measure_name" : "default_feature_reports",
            "measure_taxonomy" : "Reporting.QAQC",
            "measure_type" : "ReportingMeasure",
            "measure_uid" : "9ee3135a-8070-4408-bfa1-b75fecf9dd4f",
            "measure_version_id" : "803f9d76-a088-489d-88d3-6f3a5ae50d8a",
            "measure_version_modified" : "20191030T020950Z",
            "measure_xml_checksum" : "FB304155",
            "started_at" : "20200103T175907Z",
            "stderr" : "",
            "stdout" : "",
            "step_errors" : [],
            "step_files" : [
               "/Users/tkwasnik/github/urbanopt-example-geojson-reopt-project/run/baseline_scenario/3/010_default_feature_reports/default_feature_reports.json",
               "/Users/tkwasnik/github/urbanopt-example-geojson-reopt-project/run/baseline_scenario/3/010_default_feature_reports/default_feature_reports.csv"
            ],
            "step_final_condition" : "Default Feature Reports generated successfully.",
            "step_info" : [
               "TIMESERIES: Electricity:Facility",
               "KEY VALUES: [\"\"]",
               "!! TIMESERIES NAME: Electricity:Facility AND key_value: ",
               "First timeseries",
               "TIMESERIES: ElectricityProduced:Facility",
               "KEY VALUES: []",
               "!! TIMESERIES NAME: ElectricityProduced:Facility AND key_value: ",
               "Is NOT Initialized",
               "TIMESERIES: Gas:Facility",
               "KEY VALUES: [\"\"]",
               "!! TIMESERIES NAME: Gas:Facility AND key_value: ",
               "Is Initialized",
               "TIMESERIES: DistrictCooling:Facility",
               "KEY VALUES: []",
               "!! TIMESERIES NAME: DistrictCooling:Facility AND key_value: ",
               "Is NOT Initialized",
               "TIMESERIES: DistrictHeating:Facility",
               "KEY VALUES: []",
               "!! TIMESERIES NAME: DistrictHeating:Facility AND key_value: ",
               "Is NOT Initialized",
               "TIMESERIES: District Cooling Chilled Water Rate",
               "KEY VALUES: []",
               "!! TIMESERIES NAME: District Cooling Chilled Water Rate AND key_value: ",
               "Is NOT Initialized",
               "TIMESERIES: District Cooling Mass Flow Rate",
               "KEY VALUES: []",
               "!! TIMESERIES NAME: District Cooling Mass Flow Rate AND key_value: ",
               "Is NOT Initialized",
               "TIMESERIES: District Cooling Inlet Temperature",
               "KEY VALUES: []",
               "!! TIMESERIES NAME: District Cooling Inlet Temperature AND key_value: ",
               "Is NOT Initialized",
               "TIMESERIES: District Cooling Outlet Temperature",
               "KEY VALUES: []",
               "!! TIMESERIES NAME: District Cooling Outlet Temperature AND key_value: ",
               "Is NOT Initialized",
               "TIMESERIES: District Heating Hot Water Rate",
               "KEY VALUES: []",
               "!! TIMESERIES NAME: District Heating Hot Water Rate AND key_value: ",
               "Is NOT Initialized",
               "TIMESERIES: District Heating Mass Flow Rate",
               "KEY VALUES: []",
               "!! TIMESERIES NAME: District Heating Mass Flow Rate AND key_value: ",
               "Is NOT Initialized",
               "TIMESERIES: District Heating Inlet Temperature",
               "KEY VALUES: []",
               "!! TIMESERIES NAME: District Heating Inlet Temperature AND key_value: ",
               "Is NOT Initialized",
               "TIMESERIES: District Heating Outlet Temperature",
               "KEY VALUES: []",
               "!! TIMESERIES NAME: District Heating Outlet Temperature AND key_value: ",
               "Is NOT Initialized",
               "new final_timeseries_names size: 13"
            ],
            "step_result" : "Success",
            "step_values" : [
               {
                  "name" : "feature_id",
                  "value" : "3"
               },
               {
                  "name" : "feature_name",
                  "value" : "Residential 1"
               },
               {
                  "name" : "feature_type",
                  "value" : "Building"
               },
               {
                  "name" : "reporting_frequency",
                  "value" : "Hourly"
               }
            ],
            "step_warnings" : []
         }
      }
   ],
   "updated_at" : "20200103T175921Z",
   "weather_file" : null
}
